File C:\Users\HOUDHEYFA\Desktop\opt\DDS\DM_DDS_Hannachi_Abdellatif.$2k was saved on m/d/yy at h:mm:ss
 
TABLE:  "ACTIVE DEGREES OF FREEDOM"
   UX=Yes   UY=No   UZ=Yes   RX=No   RY=Yes   RZ=No
 
TABLE:  "ANALYSIS OPTIONS"
   Solver=Advanced   SolverProc=Auto   Force32Bit=No   StiffCase=None   GeomMod=None   HingeOpt="In Elements"
 
TABLE:  "AUTO WAVE 3 - WAVE CHARACTERISTICS - GENERAL"
   WaveChar=Default   WaveType="From Theory"   KinFactor=1   SWaterDepth=45   WaveHeight=18   WavePeriod=12   WaveTheory=Linear
 
TABLE:  "CASE - DIRECT HISTORY 1 - GENERAL"
   Case=ACASE1   OutSteps=3000   StepSize=0.01
 
TABLE:  "CASE - DIRECT HISTORY 2 - LOAD ASSIGNMENTS"
   Case=ACASE1   LoadType=Accel   LoadName="Accel U1"   Function=FRIULI   TransAccSF=10   TimeFactor=1   ArrivalTime=0   CoordSys=GLOBAL   Angle=0
 
TABLE:  "CASE - DIRECT HISTORY 3 - VISCOUS PROPORTIONAL DAMPING"
   Case=ACASE1   MassCoeff=0.251327412287183   StiffCoeff=0.00636619772367582
 
TABLE:  "CASE - DIRECT HISTORY 4 - INTEGRATION PARAMETERS"
   Case=ACASE1   IntMethod=HilberHughesTaylor   Gamma=0.5   Beta=0.25   Alpha=0
 
TABLE:  "CASE - DIRECT HISTORY 5 - NONLINEAR PARAMETERS"
   Case=ACASE1   GeoNonLin=None   DTMax=0   DTMin=0   UseEvStep=No   MaxIterCS=10   MaxIterNR=40   ItConvTol=0.0001   UseLineSrch=Yes   LSPerIter=20   LSTol=0.1   LSStepFact=1.618
 
TABLE:  "CASE - MODAL 1 - GENERAL"
   Case=MODAL   ModeType=Eigen   MaxNumModes=12   MinNumModes=1   EigenShift=0   EigenCutoff=0   EigenTol=1E-09   AutoShift=Yes
 
TABLE:  "CASE - STATIC 1 - LOAD ASSIGNMENTS"
   Case=DEAD   LoadType="Load pattern"   LoadName=DEAD   LoadSF=1
 
TABLE:  "CONNECTIVITY - FRAME"
   Frame=271   JointI=170   JointJ=171   IsCurved=No   GUID=b63bb881-33e0-4434-ac5a-f0ed410abfc8
   Frame=272   JointI=171   JointJ=172   IsCurved=No   GUID=7d0958c9-e0fa-472f-aac6-996c8320e7bc
   Frame=273   JointI=172   JointJ=173   IsCurved=No   GUID=5f560fb8-cf9c-40f6-b671-7e164171a0fc
   Frame=274   JointI=173   JointJ=174   IsCurved=No   GUID=ddebfe3d-2024-4089-8662-1fba333a191d
   Frame=275   JointI=175   JointJ=176   IsCurved=No   GUID=5e293424-2bdc-4ac4-91a0-657715823f0e
   Frame=276   JointI=176   JointJ=177   IsCurved=No   GUID=9116a52b-a291-4e67-b99b-447c970f3de6
   Frame=277   JointI=177   JointJ=178   IsCurved=No   GUID=1b364512-18a6-4968-a76f-29526208d6dc
   Frame=278   JointI=178   JointJ=179   IsCurved=No   GUID=40e6cf56-f902-4eb0-86b2-16182a91279e
   Frame=279   JointI=180   JointJ=181   IsCurved=No   GUID=cbe8e8b9-e0af-4a8a-889b-61e88313291d
   Frame=280   JointI=181   JointJ=182   IsCurved=No   GUID=8aeb077c-f866-48df-a0ec-09392dd31ea3
   Frame=281   JointI=182   JointJ=183   IsCurved=No   GUID=6248eb5c-ebba-43e8-a69f-a1af326383c3
   Frame=282   JointI=183   JointJ=184   IsCurved=No   GUID=6dc3368c-b266-4731-ab00-fe1a8b836056
   Frame=283   JointI=185   JointJ=186   IsCurved=No   GUID=fba0d882-f8c2-4660-b91f-22a502e8f1e8
   Frame=284   JointI=186   JointJ=187   IsCurved=No   GUID=0ef158cf-3a73-4e6b-9fc7-f327e3f4a074
   Frame=285   JointI=187   JointJ=188   IsCurved=No   GUID=72a9b0d0-cee0-45b0-9b27-96a90b6c5493
   Frame=286   JointI=188   JointJ=189   IsCurved=No   GUID=63f20794-3f7b-4cd0-a181-c9264033cb5c
   Frame=287   JointI=171   JointJ=176   IsCurved=No   GUID=7af947d8-d6fa-4baa-b796-ae50b11ee4ea
   Frame=288   JointI=172   JointJ=177   IsCurved=No   GUID=fcd1b12b-9211-4811-8473-e6e649ec99ce
   Frame=289   JointI=173   JointJ=178   IsCurved=No   GUID=0c997e25-d64a-4f5c-8296-743e8b40235c
   Frame=290   JointI=174   JointJ=179   IsCurved=No   GUID=eb04bc67-c091-4270-979c-6e35c66bb104
   Frame=291   JointI=181   JointJ=186   IsCurved=No   GUID=5bcb4065-48a6-4472-99c9-44822a2113ad
   Frame=292   JointI=182   JointJ=187   IsCurved=No   GUID=cea8b020-5a9c-4011-94a0-70af937988dc
   Frame=293   JointI=183   JointJ=188   IsCurved=No   GUID=4a205015-ff1a-4679-8c79-44397582f928
   Frame=294   JointI=184   JointJ=189   IsCurved=No   GUID=5e59aaff-275e-47d3-957b-5c6d2fcdc043
   Frame=295   JointI=175   JointJ=190   IsCurved=No   GUID=b0c8ee7b-0b40-4f05-800a-686015aff5c5
   Frame=296   JointI=176   JointJ=191   IsCurved=No   GUID=f30c5998-1091-403b-b942-92564a6273d1
   Frame=297   JointI=177   JointJ=192   IsCurved=No   GUID=e548f583-384e-4cbe-aff6-755c3ee4b33a
   Frame=298   JointI=178   JointJ=193   IsCurved=No   GUID=95d098e3-6385-4b22-8130-72b1fa47d370
   Frame=299   JointI=180   JointJ=194   IsCurved=No   GUID=4a1f5e41-2250-40c0-9562-ab3f2a8bf5de
   Frame=300   JointI=181   JointJ=195   IsCurved=No   GUID=70694970-48d4-48b7-82bf-5921ca0c563f
   Frame=301   JointI=182   JointJ=196   IsCurved=No   GUID=7275e654-fd42-4c34-861c-620137003bf0
   Frame=302   JointI=183   JointJ=197   IsCurved=No   GUID=686aaa4b-3cf8-4b56-91df-ef6e64d2415b
   Frame=303   JointI=176   JointJ=190   IsCurved=No   GUID=5578bd9f-552c-49e3-b048-c87c1af1ad78
   Frame=304   JointI=194   JointJ=181   IsCurved=No   GUID=28436835-65c6-4fbe-a3d3-09376716fbd1
   Frame=305   JointI=177   JointJ=191   IsCurved=No   GUID=7bd8f0da-aa2f-4804-95f9-3bf8dee61ddd
   Frame=306   JointI=195   JointJ=182   IsCurved=No   GUID=8edc64d4-14f4-4eb1-97d7-93235999a443
   Frame=307   JointI=178   JointJ=192   IsCurved=No   GUID=ec362af8-2111-45a6-86b3-eb69a17c11c0
   Frame=308   JointI=196   JointJ=183   IsCurved=No   GUID=8f688f8e-43d3-483b-8330-6317edefaf61
   Frame=309   JointI=179   JointJ=193   IsCurved=No   GUID=6fd25ef7-831a-44a0-be42-a13334889014
   Frame=310   JointI=197   JointJ=184   IsCurved=No   GUID=3b33d086-b6df-45ab-b9d3-c88b5ade0e01
   Frame=311   JointI=198   JointJ=202   IsCurved=No   GUID=a46438f7-b0d0-45dc-b2c3-2eab3be8c9fe
   Frame=312   JointI=199   JointJ=203   IsCurved=No   GUID=13ea56ec-ccc5-48a3-acfd-6a072fae07f7
   Frame=313   JointI=200   JointJ=204   IsCurved=No   GUID=290a513a-10af-402a-baf2-d8256ba16c5a
   Frame=314   JointI=201   JointJ=205   IsCurved=No   GUID=bf1b0353-c708-4ccf-9df9-0973ce9f4109
   Frame=315   JointI=174   JointJ=206   IsCurved=No   GUID=cd4c922b-1358-4c74-86aa-d0f98ecacfa2
   Frame=316   JointI=206   JointJ=207   IsCurved=No   GUID=0894ce20-df99-421e-a64e-263609851232
   Frame=317   JointI=207   JointJ=208   IsCurved=No   GUID=da8f7d51-511f-4cf6-9806-1bb2622f9445
   Frame=318   JointI=179   JointJ=209   IsCurved=No   GUID=a0e106cf-6063-482e-9007-427463efc41e
   Frame=319   JointI=209   JointJ=210   IsCurved=No   GUID=13034d30-088d-4b41-bff9-2296242f382d
   Frame=320   JointI=210   JointJ=211   IsCurved=No   GUID=eae1f821-ea56-4323-b9e1-981ded8decac
   Frame=321   JointI=184   JointJ=212   IsCurved=No   GUID=fcdb2482-b9fe-499a-876d-a86d96196f5c
   Frame=322   JointI=212   JointJ=213   IsCurved=No   GUID=b21fd0d1-6757-4777-8ffd-5df767f222ca
   Frame=323   JointI=213   JointJ=214   IsCurved=No   GUID=b600f540-d4ab-42f4-9cbf-9d0751ddcc49
   Frame=324   JointI=189   JointJ=215   IsCurved=No   GUID=eaa7ea69-fc42-408c-9976-310c057cba15
   Frame=325   JointI=215   JointJ=216   IsCurved=No   GUID=d665c218-d3e8-4dc2-9071-bb1d4d9618a0
   Frame=326   JointI=216   JointJ=217   IsCurved=No   GUID=44558780-4002-4720-95f2-c8a166ae81e0
   Frame=327   JointI=206   JointJ=209   IsCurved=No   GUID=e2918e81-74b8-49ea-88d3-7c6cf829abbc
   Frame=328   JointI=207   JointJ=210   IsCurved=No   GUID=48b86a33-8185-4855-8d42-bad035507dbb
   Frame=329   JointI=208   JointJ=211   IsCurved=No   GUID=5dbde826-833d-4c5d-97d2-7b04863a8fda
   Frame=330   JointI=212   JointJ=215   IsCurved=No   GUID=5bb20cd8-c2de-4524-9959-0c4bb9bb4a52
   Frame=331   JointI=213   JointJ=216   IsCurved=No   GUID=87fd3a27-9eb5-43ad-a211-8ae552843b5c
   Frame=332   JointI=214   JointJ=217   IsCurved=No   GUID=be294c04-3342-4453-9195-c474ed272203
   Frame=333   JointI=179   JointJ=218   IsCurved=No   GUID=1bab3f83-2ff8-4662-b10a-b1f3c8181472
   Frame=334   JointI=209   JointJ=219   IsCurved=No   GUID=815709fe-1e1f-41df-8e80-260ef7cb20ed
   Frame=335   JointI=210   JointJ=220   IsCurved=No   GUID=b2e1b12a-eeeb-435c-967e-10810e266a5b
   Frame=336   JointI=184   JointJ=221   IsCurved=No   GUID=84f36f6e-d19c-4c63-920b-46118e50674f
   Frame=337   JointI=212   JointJ=222   IsCurved=No   GUID=966c1187-eb3b-4678-9d2e-0bb479fc9afe
   Frame=338   JointI=213   JointJ=223   IsCurved=No   GUID=3a8041e9-8edb-47bd-a3f6-5eddaa6328de
   Frame=339   JointI=209   JointJ=218   IsCurved=No   GUID=07147e5a-80bb-4222-b42a-d17199e35e11
   Frame=340   JointI=221   JointJ=212   IsCurved=No   GUID=6af05254-ac7d-4aae-b60a-ecfdeb1c53ea
   Frame=341   JointI=210   JointJ=219   IsCurved=No   GUID=b4869b4b-7be6-4b8a-8d07-aeea1bab39f5
   Frame=342   JointI=222   JointJ=213   IsCurved=No   GUID=aa4941ae-40a8-4cad-b01c-a9198cbbf0ab
   Frame=343   JointI=211   JointJ=220   IsCurved=No   GUID=869d5aa8-1d01-40e7-9e80-9760359d59af
   Frame=344   JointI=223   JointJ=214   IsCurved=No   GUID=2ae3199d-ddfb-450f-8f0c-46d02f54b1bf
   Frame=345   JointI=224   JointJ=227   IsCurved=No   GUID=84009a86-eba4-49c9-a4fb-06e25c1b7aa0
   Frame=346   JointI=225   JointJ=228   IsCurved=No   GUID=c77987d2-80cf-4c3f-b7df-4fabf7769e77
   Frame=347   JointI=226   JointJ=229   IsCurved=No   GUID=291c1a5e-4405-4848-b158-8ee3f87b35ea
   Frame=348   JointI=208   JointJ=231   IsCurved=No   GUID=01231ec9-16a9-493d-b42c-f90b8b6a2c03
   Frame=349   JointI=231   JointJ=232   IsCurved=No   GUID=1e28e2ba-f002-41b0-b4e9-ae1585c698fb
   Frame=350   JointI=232   JointJ=233   IsCurved=No   GUID=8e34f867-f8e8-49bf-abb7-b157a9e8eef1
   Frame=351   JointI=211   JointJ=234   IsCurved=No   GUID=e9b882d9-b407-49a8-96f2-fc8dd01f0256
   Frame=352   JointI=234   JointJ=235   IsCurved=No   GUID=3678a509-ff1c-4a64-a7d1-b723ebbf6b61
   Frame=353   JointI=235   JointJ=236   IsCurved=No   GUID=d2982533-b20e-4bbc-ae64-5d02e3d6cf01
   Frame=354   JointI=214   JointJ=237   IsCurved=No   GUID=8309c7bb-2baa-46b2-ac13-31d8f276e11e
   Frame=355   JointI=237   JointJ=238   IsCurved=No   GUID=7e5daa41-7d5c-418c-8148-0641d9150073
   Frame=356   JointI=238   JointJ=239   IsCurved=No   GUID=5943a7ad-4d96-4152-851e-f5592383692f
   Frame=357   JointI=217   JointJ=240   IsCurved=No   GUID=5f0d2903-e36a-45bc-916b-a6ff64582321
   Frame=358   JointI=240   JointJ=241   IsCurved=No   GUID=24ee4883-58c1-429c-bc4a-5614875d6bda
   Frame=359   JointI=241   JointJ=242   IsCurved=No   GUID=67783efa-3ebf-4241-ba99-d73852ad0d53
   Frame=360   JointI=231   JointJ=234   IsCurved=No   GUID=4c75cc63-3de1-44b0-b7e0-c7a4b9243e2d
   Frame=361   JointI=232   JointJ=235   IsCurved=No   GUID=d0ac90ca-4c0b-4b87-8107-f6726119b1e0
   Frame=362   JointI=233   JointJ=236   IsCurved=No   GUID=739c40ca-f01d-4369-a9c8-4939799b953a
   Frame=363   JointI=237   JointJ=240   IsCurved=No   GUID=f17cc8c6-7a03-4b10-b243-b8b7dc8d90e3
   Frame=364   JointI=238   JointJ=241   IsCurved=No   GUID=a0edfa61-3179-4658-9eac-65ad774f2e3e
   Frame=365   JointI=239   JointJ=242   IsCurved=No   GUID=c5496777-74ff-47cc-815f-b1e87d2d4c10
   Frame=366   JointI=211   JointJ=243   IsCurved=No   GUID=86651a34-d1c5-4c99-b123-f556cd686c23
   Frame=367   JointI=234   JointJ=244   IsCurved=No   GUID=7134a2bc-7e99-45f1-b6ea-22aad17a01b6
   Frame=368   JointI=235   JointJ=245   IsCurved=No   GUID=bb40779e-a689-48f4-8bb0-ec1968745ffd
   Frame=369   JointI=214   JointJ=246   IsCurved=No   GUID=2f11853d-a38c-4f2b-a358-f28861b05242
   Frame=370   JointI=237   JointJ=247   IsCurved=No   GUID=5e304dd6-3538-4213-98bb-3f8c9db6bde7
   Frame=371   JointI=238   JointJ=248   IsCurved=No   GUID=22461451-cd04-4c55-93ee-1bb080dc6872
   Frame=372   JointI=234   JointJ=243   IsCurved=No   GUID=efe1acad-3347-4140-9892-88e82f1ec0d9
   Frame=373   JointI=246   JointJ=237   IsCurved=No   GUID=3c669aa9-3d34-4161-9818-c679c42eb84f
   Frame=374   JointI=235   JointJ=244   IsCurved=No   GUID=3a007980-4492-4905-ac52-59cb69f2ebe9
   Frame=375   JointI=247   JointJ=238   IsCurved=No   GUID=3db3d05d-7cff-4ee6-b59a-77214168fdc0
   Frame=376   JointI=236   JointJ=245   IsCurved=No   GUID=81452f5c-9a88-4a90-aaeb-192f497e1381
   Frame=377   JointI=248   JointJ=239   IsCurved=No   GUID=0eff7666-8046-49a4-8b2b-531ac2bb684b
   Frame=378   JointI=249   JointJ=252   IsCurved=No   GUID=bda65ca4-3398-4bdb-8c01-8b3515f3d6fe
   Frame=379   JointI=250   JointJ=253   IsCurved=No   GUID=40f25e5b-2132-4dfa-9f05-4a50366115a0
   Frame=380   JointI=251   JointJ=254   IsCurved=No   GUID=2a048cda-1b43-44cd-b97e-d357d572e39a
 
TABLE:  "CONNECTIVITY - LINK"
   Link=1   JointI=245   JointJ=251   GUID=9ab7a2b0-2ad7-4b74-b897-7e9a85fdda50
   Link=2   JointI=254   JointJ=248   GUID=81ecd416-eba8-4bbd-8df1-d4bc584eb3ea
   Link=3   JointI=244   JointJ=250   GUID=ca2e401f-955e-43a8-815c-cc9c063e59d2
   Link=4   JointI=253   JointJ=247   GUID=fe4ca6e5-d513-4068-8f39-d171f4b46837
   Link=5   JointI=243   JointJ=249   GUID=1dcaa330-25f2-4431-8bd8-3442c728f5d7
   Link=6   JointI=252   JointJ=246   GUID=0b704a2f-2f0d-4986-aaab-9f0fc1218c89
   Link=7   JointI=220   JointJ=226   GUID=549fcdfb-0210-4634-a261-5045a3d740a2
   Link=8   JointI=229   JointJ=223   GUID=dd23150e-8ccd-4ed7-8b10-bb873d9f70e4
   Link=9   JointI=219   JointJ=225   GUID=50cbee41-5c6c-41ca-b75c-977e2537d898
   Link=10   JointI=228   JointJ=222   GUID=3020265a-13fa-4054-aa42-ebe59090d8cb
   Link=11   JointI=218   JointJ=224   GUID=8ce27241-c8ed-4483-bedc-2cb0b7f84241
   Link=12   JointI=227   JointJ=221   GUID=f64ab7b0-9dd3-43f0-9aeb-38f79489f522
   Link=13   JointI=193   JointJ=201   GUID=4ca9a351-5bbe-41fa-b154-3f80111c6a65
   Link=14   JointI=205   JointJ=197   GUID=a5d5967d-001b-4bb3-ba5c-9dde4aa20e31
   Link=15   JointI=192   JointJ=200   GUID=fa81cc7c-ba01-4051-9a1a-774787cecefa
   Link=16   JointI=204   JointJ=196   GUID=2a1d1810-da82-4ac7-a9cd-b1c6df926daa
   Link=17   JointI=191   JointJ=199   GUID=76c4eedf-33f1-46be-b20a-8d2305ed50c1
   Link=18   JointI=203   JointJ=195   GUID=ce57df81-a966-457d-802d-16ae2ac521ef
   Link=19   JointI=190   JointJ=198   GUID=5d84ab32-8df6-41aa-a910-5ba67a8dafb5
   Link=20   JointI=202   JointJ=194   GUID=25fb2d59-51e8-4ebb-9c8a-89c47a8e3972
 
TABLE:  "COORDINATE SYSTEMS"
   Name=GLOBAL   Type=Cartesian   X=0   Y=0   Z=0   AboutZ=0   AboutY=0   AboutX=0
 
TABLE:  "DATABASE DOCUMENTATION"
 
TABLE:  "DATABASE FORMAT TYPES"
   UnitsCurr=Yes   OverrideE=No
 
TABLE:  "FRAME AUTO MESH ASSIGNMENTS"
   Frame=271   AutoMesh=Yes   AtJoints=Yes   AtFrames=No   NumSegments=0   MaxLength=0   MaxDegrees=0
   Frame=272   AutoMesh=Yes   AtJoints=Yes   AtFrames=No   NumSegments=0   MaxLength=0   MaxDegrees=0
   Frame=273   AutoMesh=Yes   AtJoints=Yes   AtFrames=No   NumSegments=0   MaxLength=0   MaxDegrees=0
   Frame=274   AutoMesh=Yes   AtJoints=Yes   AtFrames=No   NumSegments=0   MaxLength=0   MaxDegrees=0
   Frame=275   AutoMesh=Yes   AtJoints=Yes   AtFrames=No   NumSegments=0   MaxLength=0   MaxDegrees=0
   Frame=276   AutoMesh=Yes   AtJoints=Yes   AtFrames=No   NumSegments=0   MaxLength=0   MaxDegrees=0
   Frame=277   AutoMesh=Yes   AtJoints=Yes   AtFrames=No   NumSegments=0   MaxLength=0   MaxDegrees=0
   Frame=278   AutoMesh=Yes   AtJoints=Yes   AtFrames=No   NumSegments=0   MaxLength=0   MaxDegrees=0
   Frame=279   AutoMesh=Yes   AtJoints=Yes   AtFrames=No   NumSegments=0   MaxLength=0   MaxDegrees=0
   Frame=280   AutoMesh=Yes   AtJoints=Yes   AtFrames=No   NumSegments=0   MaxLength=0   MaxDegrees=0
   Frame=281   AutoMesh=Yes   AtJoints=Yes   AtFrames=No   NumSegments=0   MaxLength=0   MaxDegrees=0
   Frame=282   AutoMesh=Yes   AtJoints=Yes   AtFrames=No   NumSegments=0   MaxLength=0   MaxDegrees=0
   Frame=283   AutoMesh=Yes   AtJoints=Yes   AtFrames=No   NumSegments=0   MaxLength=0   MaxDegrees=0
   Frame=284   AutoMesh=Yes   AtJoints=Yes   AtFrames=No   NumSegments=0   MaxLength=0   MaxDegrees=0
   Frame=285   AutoMesh=Yes   AtJoints=Yes   AtFrames=No   NumSegments=0   MaxLength=0   MaxDegrees=0
   Frame=286   AutoMesh=Yes   AtJoints=Yes   AtFrames=No   NumSegments=0   MaxLength=0   MaxDegrees=0
   Frame=287   AutoMesh=Yes   AtJoints=Yes   AtFrames=No   NumSegments=0   MaxLength=0   MaxDegrees=0
   Frame=288   AutoMesh=Yes   AtJoints=Yes   AtFrames=No   NumSegments=0   MaxLength=0   MaxDegrees=0
   Frame=289   AutoMesh=Yes   AtJoints=Yes   AtFrames=No   NumSegments=0   MaxLength=0   MaxDegrees=0
   Frame=290   AutoMesh=Yes   AtJoints=Yes   AtFrames=No   NumSegments=0   MaxLength=0   MaxDegrees=0
# ... 90 like lines cut
 
TABLE:  "FRAME DESIGN PROCEDURES"
   Frame=271   DesignProc="From Material"
   Frame=272   DesignProc="From Material"
   Frame=273   DesignProc="From Material"
   Frame=274   DesignProc="From Material"
   Frame=275   DesignProc="From Material"
   Frame=276   DesignProc="From Material"
   Frame=277   DesignProc="From Material"
   Frame=278   DesignProc="From Material"
   Frame=279   DesignProc="From Material"
   Frame=280   DesignProc="From Material"
   Frame=281   DesignProc="From Material"
   Frame=282   DesignProc="From Material"
   Frame=283   DesignProc="From Material"
   Frame=284   DesignProc="From Material"
   Frame=285   DesignProc="From Material"
   Frame=286   DesignProc="From Material"
   Frame=287   DesignProc="From Material"
   Frame=288   DesignProc="From Material"
   Frame=289   DesignProc="From Material"
   Frame=290   DesignProc="From Material"
# ... 90 like lines cut
 
TABLE:  "FRAME LOAD TRANSFER OPTIONS"
   Frame=271   Transfer=Yes
   Frame=272   Transfer=Yes
   Frame=273   Transfer=Yes
   Frame=274   Transfer=Yes
   Frame=275   Transfer=Yes
   Frame=276   Transfer=Yes
   Frame=277   Transfer=Yes
   Frame=278   Transfer=Yes
   Frame=279   Transfer=Yes
   Frame=280   Transfer=Yes
   Frame=281   Transfer=Yes
   Frame=282   Transfer=Yes
   Frame=283   Transfer=Yes
   Frame=284   Transfer=Yes
   Frame=285   Transfer=Yes
   Frame=286   Transfer=Yes
   Frame=287   Transfer=Yes
   Frame=288   Transfer=Yes
   Frame=289   Transfer=Yes
   Frame=290   Transfer=Yes
# ... 90 like lines cut
 
TABLE:  "FRAME OUTPUT STATION ASSIGNMENTS"
   Frame=271   StationType=MinNumSta   MinNumSta=3   AddAtElmInt=Yes   AddAtPtLoad=Yes
   Frame=272   StationType=MinNumSta   MinNumSta=3   AddAtElmInt=Yes   AddAtPtLoad=Yes
   Frame=273   StationType=MinNumSta   MinNumSta=3   AddAtElmInt=Yes   AddAtPtLoad=Yes
   Frame=274   StationType=MinNumSta   MinNumSta=3   AddAtElmInt=Yes   AddAtPtLoad=Yes
   Frame=275   StationType=MinNumSta   MinNumSta=3   AddAtElmInt=Yes   AddAtPtLoad=Yes
   Frame=276   StationType=MinNumSta   MinNumSta=3   AddAtElmInt=Yes   AddAtPtLoad=Yes
   Frame=277   StationType=MinNumSta   MinNumSta=3   AddAtElmInt=Yes   AddAtPtLoad=Yes
   Frame=278   StationType=MinNumSta   MinNumSta=3   AddAtElmInt=Yes   AddAtPtLoad=Yes
   Frame=279   StationType=MinNumSta   MinNumSta=3   AddAtElmInt=Yes   AddAtPtLoad=Yes
   Frame=280   StationType=MinNumSta   MinNumSta=3   AddAtElmInt=Yes   AddAtPtLoad=Yes
   Frame=281   StationType=MinNumSta   MinNumSta=3   AddAtElmInt=Yes   AddAtPtLoad=Yes
   Frame=282   StationType=MinNumSta   MinNumSta=3   AddAtElmInt=Yes   AddAtPtLoad=Yes
   Frame=283   StationType=MinNumSta   MinNumSta=3   AddAtElmInt=Yes   AddAtPtLoad=Yes
   Frame=284   StationType=MinNumSta   MinNumSta=3   AddAtElmInt=Yes   AddAtPtLoad=Yes
   Frame=285   StationType=MinNumSta   MinNumSta=3   AddAtElmInt=Yes   AddAtPtLoad=Yes
   Frame=286   StationType=MinNumSta   MinNumSta=3   AddAtElmInt=Yes   AddAtPtLoad=Yes
   Frame=287   StationType=MaxStaSpcg   MaxStaSpcg=0.5   AddAtElmInt=Yes   AddAtPtLoad=Yes
   Frame=288   StationType=MaxStaSpcg   MaxStaSpcg=0.5   AddAtElmInt=Yes   AddAtPtLoad=Yes
   Frame=289   StationType=MaxStaSpcg   MaxStaSpcg=0.5   AddAtElmInt=Yes   AddAtPtLoad=Yes
   Frame=290   StationType=MaxStaSpcg   MaxStaSpcg=0.5   AddAtElmInt=Yes   AddAtPtLoad=Yes
   Frame=291   StationType=MaxStaSpcg   MaxStaSpcg=0.5   AddAtElmInt=Yes   AddAtPtLoad=Yes
   Frame=292   StationType=MaxStaSpcg   MaxStaSpcg=0.5   AddAtElmInt=Yes   AddAtPtLoad=Yes
   Frame=293   StationType=MaxStaSpcg   MaxStaSpcg=0.5   AddAtElmInt=Yes   AddAtPtLoad=Yes
   Frame=294   StationType=MaxStaSpcg   MaxStaSpcg=0.5   AddAtElmInt=Yes   AddAtPtLoad=Yes
   Frame=295   StationType=MinNumSta   MinNumSta=3   AddAtElmInt=Yes   AddAtPtLoad=Yes
   Frame=296   StationType=MinNumSta   MinNumSta=3   AddAtElmInt=Yes   AddAtPtLoad=Yes
   Frame=297   StationType=MinNumSta   MinNumSta=3   AddAtElmInt=Yes   AddAtPtLoad=Yes
   Frame=298   StationType=MinNumSta   MinNumSta=3   AddAtElmInt=Yes   AddAtPtLoad=Yes
   Frame=299   StationType=MinNumSta   MinNumSta=3   AddAtElmInt=Yes   AddAtPtLoad=Yes
   Frame=300   StationType=MinNumSta   MinNumSta=3   AddAtElmInt=Yes   AddAtPtLoad=Yes
   Frame=301   StationType=MinNumSta   MinNumSta=3   AddAtElmInt=Yes   AddAtPtLoad=Yes
   Frame=302   StationType=MinNumSta   MinNumSta=3   AddAtElmInt=Yes   AddAtPtLoad=Yes
   Frame=303   StationType=MaxStaSpcg   MaxStaSpcg=0.5   AddAtElmInt=Yes   AddAtPtLoad=Yes
   Frame=304   StationType=MaxStaSpcg   MaxStaSpcg=0.5   AddAtElmInt=Yes   AddAtPtLoad=Yes
   Frame=305   StationType=MaxStaSpcg   MaxStaSpcg=0.5   AddAtElmInt=Yes   AddAtPtLoad=Yes
   Frame=306   StationType=MaxStaSpcg   MaxStaSpcg=0.5   AddAtElmInt=Yes   AddAtPtLoad=Yes
   Frame=307   StationType=MaxStaSpcg   MaxStaSpcg=0.5   AddAtElmInt=Yes   AddAtPtLoad=Yes
   Frame=308   StationType=MaxStaSpcg   MaxStaSpcg=0.5   AddAtElmInt=Yes   AddAtPtLoad=Yes
   Frame=309   StationType=MaxStaSpcg   MaxStaSpcg=0.5   AddAtElmInt=Yes   AddAtPtLoad=Yes
   Frame=310   StationType=MaxStaSpcg   MaxStaSpcg=0.5   AddAtElmInt=Yes   AddAtPtLoad=Yes
   Frame=311   StationType=MaxStaSpcg   MaxStaSpcg=0.5   AddAtElmInt=Yes   AddAtPtLoad=Yes
   Frame=312   StationType=MaxStaSpcg   MaxStaSpcg=0.5   AddAtElmInt=Yes   AddAtPtLoad=Yes
   Frame=313   StationType=MaxStaSpcg   MaxStaSpcg=0.5   AddAtElmInt=Yes   AddAtPtLoad=Yes
   Frame=314   StationType=MaxStaSpcg   MaxStaSpcg=0.5   AddAtElmInt=Yes   AddAtPtLoad=Yes
   Frame=315   StationType=MinNumSta   MinNumSta=3   AddAtElmInt=Yes   AddAtPtLoad=Yes
   Frame=316   StationType=MinNumSta   MinNumSta=3   AddAtElmInt=Yes   AddAtPtLoad=Yes
   Frame=317   StationType=MinNumSta   MinNumSta=3   AddAtElmInt=Yes   AddAtPtLoad=Yes
   Frame=318   StationType=MinNumSta   MinNumSta=3   AddAtElmInt=Yes   AddAtPtLoad=Yes
   Frame=319   StationType=MinNumSta   MinNumSta=3   AddAtElmInt=Yes   AddAtPtLoad=Yes
   Frame=320   StationType=MinNumSta   MinNumSta=3   AddAtElmInt=Yes   AddAtPtLoad=Yes
   Frame=321   StationType=MinNumSta   MinNumSta=3   AddAtElmInt=Yes   AddAtPtLoad=Yes
   Frame=322   StationType=MinNumSta   MinNumSta=3   AddAtElmInt=Yes   AddAtPtLoad=Yes
   Frame=323   StationType=MinNumSta   MinNumSta=3   AddAtElmInt=Yes   AddAtPtLoad=Yes
   Frame=324   StationType=MinNumSta   MinNumSta=3   AddAtElmInt=Yes   AddAtPtLoad=Yes
   Frame=325   StationType=MinNumSta   MinNumSta=3   AddAtElmInt=Yes   AddAtPtLoad=Yes
   Frame=326   StationType=MinNumSta   MinNumSta=3   AddAtElmInt=Yes   AddAtPtLoad=Yes
   Frame=327   StationType=MaxStaSpcg   MaxStaSpcg=0.5   AddAtElmInt=Yes   AddAtPtLoad=Yes
   Frame=328   StationType=MaxStaSpcg   MaxStaSpcg=0.5   AddAtElmInt=Yes   AddAtPtLoad=Yes
   Frame=329   StationType=MaxStaSpcg   MaxStaSpcg=0.5   AddAtElmInt=Yes   AddAtPtLoad=Yes
   Frame=330   StationType=MaxStaSpcg   MaxStaSpcg=0.5   AddAtElmInt=Yes   AddAtPtLoad=Yes
   Frame=331   StationType=MaxStaSpcg   MaxStaSpcg=0.5   AddAtElmInt=Yes   AddAtPtLoad=Yes
   Frame=332   StationType=MaxStaSpcg   MaxStaSpcg=0.5   AddAtElmInt=Yes   AddAtPtLoad=Yes
   Frame=333   StationType=MinNumSta   MinNumSta=3   AddAtElmInt=Yes   AddAtPtLoad=Yes
   Frame=334   StationType=MinNumSta   MinNumSta=3   AddAtElmInt=Yes   AddAtPtLoad=Yes
   Frame=335   StationType=MinNumSta   MinNumSta=3   AddAtElmInt=Yes   AddAtPtLoad=Yes
   Frame=336   StationType=MinNumSta   MinNumSta=3   AddAtElmInt=Yes   AddAtPtLoad=Yes
   Frame=337   StationType=MinNumSta   MinNumSta=3   AddAtElmInt=Yes   AddAtPtLoad=Yes
   Frame=338   StationType=MinNumSta   MinNumSta=3   AddAtElmInt=Yes   AddAtPtLoad=Yes
   Frame=339   StationType=MaxStaSpcg   MaxStaSpcg=0.5   AddAtElmInt=Yes   AddAtPtLoad=Yes
   Frame=340   StationType=MaxStaSpcg   MaxStaSpcg=0.5   AddAtElmInt=Yes   AddAtPtLoad=Yes
   Frame=341   StationType=MaxStaSpcg   MaxStaSpcg=0.5   AddAtElmInt=Yes   AddAtPtLoad=Yes
   Frame=342   StationType=MaxStaSpcg   MaxStaSpcg=0.5   AddAtElmInt=Yes   AddAtPtLoad=Yes
   Frame=343   StationType=MaxStaSpcg   MaxStaSpcg=0.5   AddAtElmInt=Yes   AddAtPtLoad=Yes
   Frame=344   StationType=MaxStaSpcg   MaxStaSpcg=0.5   AddAtElmInt=Yes   AddAtPtLoad=Yes
   Frame=345   StationType=MaxStaSpcg   MaxStaSpcg=0.5   AddAtElmInt=Yes   AddAtPtLoad=Yes
   Frame=346   StationType=MaxStaSpcg   MaxStaSpcg=0.5   AddAtElmInt=Yes   AddAtPtLoad=Yes
   Frame=347   StationType=MaxStaSpcg   MaxStaSpcg=0.5   AddAtElmInt=Yes   AddAtPtLoad=Yes
   Frame=348   StationType=MinNumSta   MinNumSta=3   AddAtElmInt=Yes   AddAtPtLoad=Yes
   Frame=349   StationType=MinNumSta   MinNumSta=3   AddAtElmInt=Yes   AddAtPtLoad=Yes
   Frame=350   StationType=MinNumSta   MinNumSta=3   AddAtElmInt=Yes   AddAtPtLoad=Yes
   Frame=351   StationType=MinNumSta   MinNumSta=3   AddAtElmInt=Yes   AddAtPtLoad=Yes
   Frame=352   StationType=MinNumSta   MinNumSta=3   AddAtElmInt=Yes   AddAtPtLoad=Yes
   Frame=353   StationType=MinNumSta   MinNumSta=3   AddAtElmInt=Yes   AddAtPtLoad=Yes
   Frame=354   StationType=MinNumSta   MinNumSta=3   AddAtElmInt=Yes   AddAtPtLoad=Yes
   Frame=355   StationType=MinNumSta   MinNumSta=3   AddAtElmInt=Yes   AddAtPtLoad=Yes
   Frame=356   StationType=MinNumSta   MinNumSta=3   AddAtElmInt=Yes   AddAtPtLoad=Yes
   Frame=357   StationType=MinNumSta   MinNumSta=3   AddAtElmInt=Yes   AddAtPtLoad=Yes
   Frame=358   StationType=MinNumSta   MinNumSta=3   AddAtElmInt=Yes   AddAtPtLoad=Yes
   Frame=359   StationType=MinNumSta   MinNumSta=3   AddAtElmInt=Yes   AddAtPtLoad=Yes
   Frame=360   StationType=MaxStaSpcg   MaxStaSpcg=0.5   AddAtElmInt=Yes   AddAtPtLoad=Yes
   Frame=361   StationType=MaxStaSpcg   MaxStaSpcg=0.5   AddAtElmInt=Yes   AddAtPtLoad=Yes
   Frame=362   StationType=MaxStaSpcg   MaxStaSpcg=0.5   AddAtElmInt=Yes   AddAtPtLoad=Yes
   Frame=363   StationType=MaxStaSpcg   MaxStaSpcg=0.5   AddAtElmInt=Yes   AddAtPtLoad=Yes
   Frame=364   StationType=MaxStaSpcg   MaxStaSpcg=0.5   AddAtElmInt=Yes   AddAtPtLoad=Yes
   Frame=365   StationType=MaxStaSpcg   MaxStaSpcg=0.5   AddAtElmInt=Yes   AddAtPtLoad=Yes
   Frame=366   StationType=MinNumSta   MinNumSta=3   AddAtElmInt=Yes   AddAtPtLoad=Yes
   Frame=367   StationType=MinNumSta   MinNumSta=3   AddAtElmInt=Yes   AddAtPtLoad=Yes
   Frame=368   StationType=MinNumSta   MinNumSta=3   AddAtElmInt=Yes   AddAtPtLoad=Yes
   Frame=369   StationType=MinNumSta   MinNumSta=3   AddAtElmInt=Yes   AddAtPtLoad=Yes
   Frame=370   StationType=MinNumSta   MinNumSta=3   AddAtElmInt=Yes   AddAtPtLoad=Yes
   Frame=371   StationType=MinNumSta   MinNumSta=3   AddAtElmInt=Yes   AddAtPtLoad=Yes
   Frame=372   StationType=MaxStaSpcg   MaxStaSpcg=0.5   AddAtElmInt=Yes   AddAtPtLoad=Yes
   Frame=373   StationType=MaxStaSpcg   MaxStaSpcg=0.5   AddAtElmInt=Yes   AddAtPtLoad=Yes
   Frame=374   StationType=MaxStaSpcg   MaxStaSpcg=0.5   AddAtElmInt=Yes   AddAtPtLoad=Yes
   Frame=375   StationType=MaxStaSpcg   MaxStaSpcg=0.5   AddAtElmInt=Yes   AddAtPtLoad=Yes
   Frame=376   StationType=MaxStaSpcg   MaxStaSpcg=0.5   AddAtElmInt=Yes   AddAtPtLoad=Yes
   Frame=377   StationType=MaxStaSpcg   MaxStaSpcg=0.5   AddAtElmInt=Yes   AddAtPtLoad=Yes
   Frame=378   StationType=MaxStaSpcg   MaxStaSpcg=0.5   AddAtElmInt=Yes   AddAtPtLoad=Yes
   Frame=379   StationType=MaxStaSpcg   MaxStaSpcg=0.5   AddAtElmInt=Yes   AddAtPtLoad=Yes
   Frame=380   StationType=MaxStaSpcg   MaxStaSpcg=0.5   AddAtElmInt=Yes   AddAtPtLoad=Yes
 
TABLE:  "FRAME SECTION ASSIGNMENTS"
   Frame=271   AutoSelect=N.A.   AnalSect=HE500A   MatProp=Default
   Frame=272   AutoSelect=N.A.   AnalSect=HE500A   MatProp=Default
   Frame=273   AutoSelect=N.A.   AnalSect=HE500A   MatProp=Default
   Frame=274   AutoSelect=N.A.   AnalSect=HE500A   MatProp=Default
   Frame=275   AutoSelect=N.A.   AnalSect=HE500A   MatProp=Default
   Frame=276   AutoSelect=N.A.   AnalSect=HE500A   MatProp=Default
   Frame=277   AutoSelect=N.A.   AnalSect=HE500A   MatProp=Default
   Frame=278   AutoSelect=N.A.   AnalSect=HE500A   MatProp=Default
   Frame=279   AutoSelect=N.A.   AnalSect=HE500A   MatProp=Default
   Frame=280   AutoSelect=N.A.   AnalSect=HE500A   MatProp=Default
   Frame=281   AutoSelect=N.A.   AnalSect=HE500A   MatProp=Default
   Frame=282   AutoSelect=N.A.   AnalSect=HE500A   MatProp=Default
   Frame=283   AutoSelect=N.A.   AnalSect=HE500A   MatProp=Default
   Frame=284   AutoSelect=N.A.   AnalSect=HE500A   MatProp=Default
   Frame=285   AutoSelect=N.A.   AnalSect=HE500A   MatProp=Default
   Frame=286   AutoSelect=N.A.   AnalSect=HE500A   MatProp=Default
   Frame=287   AutoSelect=N.A.   AnalSect=IPE600   MatProp=Default
   Frame=288   AutoSelect=N.A.   AnalSect=IPE600   MatProp=Default
   Frame=289   AutoSelect=N.A.   AnalSect=IPE600   MatProp=Default
   Frame=290   AutoSelect=N.A.   AnalSect=IPE600   MatProp=Default
   Frame=291   AutoSelect=N.A.   AnalSect=IPE600   MatProp=Default
   Frame=292   AutoSelect=N.A.   AnalSect=IPE600   MatProp=Default
   Frame=293   AutoSelect=N.A.   AnalSect=IPE600   MatProp=Default
   Frame=294   AutoSelect=N.A.   AnalSect=IPE600   MatProp=Default
   Frame=295   AutoSelect=N.A.   AnalSect=2UPN100/0/   MatProp=Default
   Frame=296   AutoSelect=N.A.   AnalSect=2UPN100/0/   MatProp=Default
   Frame=297   AutoSelect=N.A.   AnalSect=2UPN100/0/   MatProp=Default
   Frame=298   AutoSelect=N.A.   AnalSect=2UPN100/0/   MatProp=Default
   Frame=299   AutoSelect=N.A.   AnalSect=2UPN100/0/   MatProp=Default
   Frame=300   AutoSelect=N.A.   AnalSect=2UPN100/0/   MatProp=Default
   Frame=301   AutoSelect=N.A.   AnalSect=2UPN100/0/   MatProp=Default
   Frame=302   AutoSelect=N.A.   AnalSect=2UPN100/0/   MatProp=Default
   Frame=303   AutoSelect=N.A.   AnalSect=IPE600   MatProp=Default
   Frame=304   AutoSelect=N.A.   AnalSect=IPE600   MatProp=Default
   Frame=305   AutoSelect=N.A.   AnalSect=IPE600   MatProp=Default
   Frame=306   AutoSelect=N.A.   AnalSect=IPE600   MatProp=Default
   Frame=307   AutoSelect=N.A.   AnalSect=IPE600   MatProp=Default
   Frame=308   AutoSelect=N.A.   AnalSect=IPE600   MatProp=Default
   Frame=309   AutoSelect=N.A.   AnalSect=IPE600   MatProp=Default
   Frame=310   AutoSelect=N.A.   AnalSect=IPE600   MatProp=Default
   Frame=311   AutoSelect=N.A.   AnalSect=IPE600   MatProp=Default
   Frame=312   AutoSelect=N.A.   AnalSect=IPE600   MatProp=Default
   Frame=313   AutoSelect=N.A.   AnalSect=IPE600   MatProp=Default
   Frame=314   AutoSelect=N.A.   AnalSect=IPE600   MatProp=Default
   Frame=315   AutoSelect=N.A.   AnalSect=HE500A   MatProp=Default
   Frame=316   AutoSelect=N.A.   AnalSect=HE500A   MatProp=Default
   Frame=317   AutoSelect=N.A.   AnalSect=HE500A   MatProp=Default
   Frame=318   AutoSelect=N.A.   AnalSect=HE500A   MatProp=Default
   Frame=319   AutoSelect=N.A.   AnalSect=HE500A   MatProp=Default
   Frame=320   AutoSelect=N.A.   AnalSect=HE500A   MatProp=Default
   Frame=321   AutoSelect=N.A.   AnalSect=HE500A   MatProp=Default
   Frame=322   AutoSelect=N.A.   AnalSect=HE500A   MatProp=Default
   Frame=323   AutoSelect=N.A.   AnalSect=HE500A   MatProp=Default
   Frame=324   AutoSelect=N.A.   AnalSect=HE500A   MatProp=Default
   Frame=325   AutoSelect=N.A.   AnalSect=HE500A   MatProp=Default
   Frame=326   AutoSelect=N.A.   AnalSect=HE500A   MatProp=Default
   Frame=327   AutoSelect=N.A.   AnalSect=IPE600   MatProp=Default
   Frame=328   AutoSelect=N.A.   AnalSect=IPE600   MatProp=Default
   Frame=329   AutoSelect=N.A.   AnalSect=IPE600   MatProp=Default
   Frame=330   AutoSelect=N.A.   AnalSect=IPE600   MatProp=Default
   Frame=331   AutoSelect=N.A.   AnalSect=IPE600   MatProp=Default
   Frame=332   AutoSelect=N.A.   AnalSect=IPE600   MatProp=Default
   Frame=333   AutoSelect=N.A.   AnalSect=2UPN100/0/   MatProp=Default
   Frame=334   AutoSelect=N.A.   AnalSect=2UPN100/0/   MatProp=Default
   Frame=335   AutoSelect=N.A.   AnalSect=2UPN100/0/   MatProp=Default
   Frame=336   AutoSelect=N.A.   AnalSect=2UPN100/0/   MatProp=Default
   Frame=337   AutoSelect=N.A.   AnalSect=2UPN100/0/   MatProp=Default
   Frame=338   AutoSelect=N.A.   AnalSect=2UPN100/0/   MatProp=Default
   Frame=339   AutoSelect=N.A.   AnalSect=IPE600   MatProp=Default
   Frame=340   AutoSelect=N.A.   AnalSect=IPE600   MatProp=Default
   Frame=341   AutoSelect=N.A.   AnalSect=IPE600   MatProp=Default
   Frame=342   AutoSelect=N.A.   AnalSect=IPE600   MatProp=Default
   Frame=343   AutoSelect=N.A.   AnalSect=IPE600   MatProp=Default
   Frame=344   AutoSelect=N.A.   AnalSect=IPE600   MatProp=Default
   Frame=345   AutoSelect=N.A.   AnalSect=IPE600   MatProp=Default
   Frame=346   AutoSelect=N.A.   AnalSect=IPE600   MatProp=Default
   Frame=347   AutoSelect=N.A.   AnalSect=IPE600   MatProp=Default
   Frame=348   AutoSelect=N.A.   AnalSect=HE500A   MatProp=Default
   Frame=349   AutoSelect=N.A.   AnalSect=HE500A   MatProp=Default
   Frame=350   AutoSelect=N.A.   AnalSect=HE500A   MatProp=Default
   Frame=351   AutoSelect=N.A.   AnalSect=HE500A   MatProp=Default
   Frame=352   AutoSelect=N.A.   AnalSect=HE500A   MatProp=Default
   Frame=353   AutoSelect=N.A.   AnalSect=HE500A   MatProp=Default
   Frame=354   AutoSelect=N.A.   AnalSect=HE500A   MatProp=Default
   Frame=355   AutoSelect=N.A.   AnalSect=HE500A   MatProp=Default
   Frame=356   AutoSelect=N.A.   AnalSect=HE500A   MatProp=Default
   Frame=357   AutoSelect=N.A.   AnalSect=HE500A   MatProp=Default
   Frame=358   AutoSelect=N.A.   AnalSect=HE500A   MatProp=Default
   Frame=359   AutoSelect=N.A.   AnalSect=HE500A   MatProp=Default
   Frame=360   AutoSelect=N.A.   AnalSect=IPE600   MatProp=Default
   Frame=361   AutoSelect=N.A.   AnalSect=IPE600   MatProp=Default
   Frame=362   AutoSelect=N.A.   AnalSect=IPE600   MatProp=Default
   Frame=363   AutoSelect=N.A.   AnalSect=IPE600   MatProp=Default
   Frame=364   AutoSelect=N.A.   AnalSect=IPE600   MatProp=Default
   Frame=365   AutoSelect=N.A.   AnalSect=IPE600   MatProp=Default
   Frame=366   AutoSelect=N.A.   AnalSect=2UPN100/0/   MatProp=Default
   Frame=367   AutoSelect=N.A.   AnalSect=2UPN100/0/   MatProp=Default
   Frame=368   AutoSelect=N.A.   AnalSect=2UPN100/0/   MatProp=Default
   Frame=369   AutoSelect=N.A.   AnalSect=2UPN100/0/   MatProp=Default
   Frame=370   AutoSelect=N.A.   AnalSect=2UPN100/0/   MatProp=Default
   Frame=371   AutoSelect=N.A.   AnalSect=2UPN100/0/   MatProp=Default
   Frame=372   AutoSelect=N.A.   AnalSect=IPE600   MatProp=Default
   Frame=373   AutoSelect=N.A.   AnalSect=IPE600   MatProp=Default
   Frame=374   AutoSelect=N.A.   AnalSect=IPE600   MatProp=Default
   Frame=375   AutoSelect=N.A.   AnalSect=IPE600   MatProp=Default
   Frame=376   AutoSelect=N.A.   AnalSect=IPE600   MatProp=Default
   Frame=377   AutoSelect=N.A.   AnalSect=IPE600   MatProp=Default
   Frame=378   AutoSelect=N.A.   AnalSect=IPE600   MatProp=Default
   Frame=379   AutoSelect=N.A.   AnalSect=IPE600   MatProp=Default
   Frame=380   AutoSelect=N.A.   AnalSect=IPE600   MatProp=Default
 
TABLE:  "FRAME SECTION PROPERTIES 01 - GENERAL"
   SectionName=2UPN100/0/   Material=A992Fy50   Shape="Double Channel"   t3=0.1   t2=0.1   tf=0.0085   tw=0.006   dis=0   Area=0.002691   TorsConst=5.289E-08   I33=4.107E-06   I22=1.228E-06   I23=0   AS2=0.0012   AS3=0.001417 _
        S33=8.214E-05   S22=2.456E-05   Z33=9.844E-05   Z22=4.157E-05   R33=0.039066589808197   R22=0.0213620208453415   Color=Cyan   FromFile=Yes   AMod=1   A2Mod=1   A3Mod=1   JMod=1   I2Mod=1   I3Mod=1   MMod=1   WMod=1 _
        SectInFile=2UPN100/0/   FileName="c:\program files\computers and structures\sap2000 22\euro.pro"   Notes="Imported 11/11/2021 19:40:34 from Euro.pro"
   SectionName=HE500A   Material=A992Fy50   Shape="I/Wide Flange"   t3=0.49   t2=0.3   tf=0.023   tw=0.012   t2b=0.3   tfb=0.023   Area=0.0198   TorsConst=3.18E-06   I33=0.000869699968   I22=0.0001037   I23=0   AS2=0.00588   AS3=0.0115 _
        S33=0.0035497957877551   S22=0.000691333333333333   Z33=0.003949   Z22=0.001059   R33=0.209581107946496   R22=0.0723697017913832   Color=Blue   FromFile=Yes   AMod=1   A2Mod=1   A3Mod=1   JMod=1   I2Mod=1   I3Mod=1   MMod=1   WMod=1 _
        SectInFile=HE500A   FileName="c:\program files\computers and structures\sap2000 22\euro.pro"   Notes="Imported 11/11/2021 19:40:18 from Euro.pro"
   SectionName=IPE600   Material=A992Fy50   Shape="I/Wide Flange"   t3=0.6   t2=0.22   tf=0.019   tw=0.012   t2b=0.22   tfb=0.019   Area=0.0156   TorsConst=1.65E-06   I33=0.0009208   I22=3.387E-05   I23=0   AS2=0.0072 _
        AS3=0.00696666650390625   S33=0.00306933333333333   S22=0.000307909090909091   Z33=0.003512   Z22=0.000486   R33=0.242951931512472   R22=0.0465956419223284   Color=Yellow   FromFile=Yes   AMod=1   A2Mod=1   A3Mod=1   JMod=1 _
        I2Mod=1   I3Mod=1   MMod=1   WMod=1   SectInFile=IPE600   FileName="c:\program files\computers and structures\sap2000 22\euro.pro"   Notes="Imported 11/11/2021 19:40:02 from Euro.pro"
 
TABLE:  "FRAME SECTION PROPERTIES 13 - TIME DEPENDENT"
   SectionName=2UPN100/0/   TypeSize=Auto   AutoSFSize=1
   SectionName=HE500A   TypeSize=Auto   AutoSFSize=1
   SectionName=IPE600   TypeSize=Auto   AutoSFSize=1
 
TABLE:  "FUNCTION - PLOT FUNCTIONS"
   PlotFunc="Input Energy"   Type=Energy   Component=Input   Mode=All
   PlotFunc=Joint242   Type=Joint   ObjectLabel=242   Component=RelDispU1   Mode=All
   PlotFunc="Modal Damping  Energy"   Type=Energy   Component="Modal Damping"   Mode=All
   PlotFunc="Link Hysteretic"   Type=Energy   Component="Link Hysteretic"   Mode=All
   PlotFunc=Link1-3   Type=Link   ObjectLabel=1   Component=M3I   Mode=All
   PlotFunc=Link1-4   Type=Link   ObjectLabel=1   Component=DeformR3   Mode=All
   PlotFunc=Link17   Type=Link   ObjectLabel=17   Component=M3I   Mode=All
   PlotFunc=Link17-1   Type=Link   ObjectLabel=17   Component=DeformR3   Mode=All
   PlotFunc=Link5   Type=Link   ObjectLabel=5   Component=M3I   Mode=All
   PlotFunc=Link5-1   Type=Link   ObjectLabel=5   Component=DeformR3   Mode=All
 
TABLE:  "FUNCTION - POWER SPECTRAL DENSITY - USER"
   Name=UNIFPSD   Frequency=0   Value=1
   Name=UNIFPSD   Frequency=1   Value=1
 
TABLE:  "FUNCTION - RESPONSE SPECTRUM - USER"
   Name=UNIFRS   Period=0   Accel=1   FuncDamp=0.05
   Name=UNIFRS   Period=1   Accel=1
 
TABLE:  "FUNCTION - STEADY STATE - USER"
   Name=UNIFSS   Frequency=0   Value=1
   Name=UNIFSS   Frequency=1   Value=1
 
TABLE:  "FUNCTION - TIME HISTORY - USER"
   Name=FRIULI   Time=0.01   Value=-0.0002
   Name=FRIULI   Time=0.02   Value=-0.0002
   Name=FRIULI   Time=0.03   Value=-0.0002
   Name=FRIULI   Time=0.04   Value=-0.0003
   Name=FRIULI   Time=0.05   Value=-0.0004
   Name=FRIULI   Time=0.06   Value=-0.0005
   Name=FRIULI   Time=0.07   Value=-0.0005
   Name=FRIULI   Time=0.08   Value=-0.0005
   Name=FRIULI   Time=0.09   Value=-0.0005
   Name=FRIULI   Time=0.1   Value=-0.0005
   Name=FRIULI   Time=0.11   Value=-0.0003
   Name=FRIULI   Time=0.12   Value=-0.0001
   Name=FRIULI   Time=0.13   Value=0
   Name=FRIULI   Time=0.14   Value=0
   Name=FRIULI   Time=0.15   Value=0
   Name=FRIULI   Time=0.16   Value=0
   Name=FRIULI   Time=0.17   Value=0
   Name=FRIULI   Time=0.18   Value=0
   Name=FRIULI   Time=0.19   Value=0
   Name=FRIULI   Time=0.2   Value=-0.0001
# ... 3928 like lines cut
 
TABLE:  "GRID LINES"
   CoordSys=GLOBAL   AxisDir=X   GridID=A   XRYZCoord=-9   LineType=Primary   LineColor=Gray8Dark   Visible=Yes   BubbleLoc=End   AllVisible=Yes   BubbleSize=0.5
   CoordSys=GLOBAL   AxisDir=X   GridID=B   XRYZCoord=-6.5   LineType=Primary   LineColor=Gray8Dark   Visible=Yes   BubbleLoc=End
   CoordSys=GLOBAL   AxisDir=X   GridID=C   XRYZCoord=-5.5   LineType=Primary   LineColor=Gray8Dark   Visible=Yes   BubbleLoc=End
   CoordSys=GLOBAL   AxisDir=X   GridID=D   XRYZCoord=-3   LineType=Primary   LineColor=Gray8Dark   Visible=Yes   BubbleLoc=End
   CoordSys=GLOBAL   AxisDir=X   GridID=E   XRYZCoord=-0.5   LineType=Primary   LineColor=Gray8Dark   Visible=Yes   BubbleLoc=End
   CoordSys=GLOBAL   AxisDir=X   GridID=F   XRYZCoord=0.5   LineType=Primary   LineColor=Gray8Dark   Visible=Yes   BubbleLoc=End
   CoordSys=GLOBAL   AxisDir=X   GridID=G   XRYZCoord=3   LineType=Primary   LineColor=Gray8Dark   Visible=Yes   BubbleLoc=End
   CoordSys=GLOBAL   AxisDir=X   GridID=H   XRYZCoord=5.5   LineType=Primary   LineColor=Gray8Dark   Visible=Yes   BubbleLoc=End
   CoordSys=GLOBAL   AxisDir=X   GridID=I   XRYZCoord=6.5   LineType=Primary   LineColor=Gray8Dark   Visible=Yes   BubbleLoc=End
   CoordSys=GLOBAL   AxisDir=X   GridID=J   XRYZCoord=9   LineType=Primary   LineColor=Gray8Dark   Visible=Yes   BubbleLoc=End
   CoordSys=GLOBAL   AxisDir=Y   GridID=1   XRYZCoord=0   LineType=Primary   LineColor=Gray8Dark   Visible=Yes   BubbleLoc=Start
   CoordSys=GLOBAL   AxisDir=Z   GridID=Z1   XRYZCoord=0   LineType=Primary   LineColor=Gray8Dark   Visible=Yes   BubbleLoc=End
   CoordSys=GLOBAL   AxisDir=Z   GridID=Z2   XRYZCoord=3   LineType=Primary   LineColor=Gray8Dark   Visible=Yes   BubbleLoc=End
   CoordSys=GLOBAL   AxisDir=Z   GridID=Z3   XRYZCoord=6   LineType=Primary   LineColor=Gray8Dark   Visible=Yes   BubbleLoc=End
   CoordSys=GLOBAL   AxisDir=Z   GridID=Z4   XRYZCoord=9   LineType=Primary   LineColor=Gray8Dark   Visible=Yes   BubbleLoc=End
   CoordSys=GLOBAL   AxisDir=Z   GridID=Z5   XRYZCoord=12   LineType=Primary   LineColor=Gray8Dark   Visible=Yes   BubbleLoc=End
   CoordSys=GLOBAL   AxisDir=Z   GridID=Z6   XRYZCoord=15   LineType=Primary   LineColor=Gray8Dark   Visible=Yes   BubbleLoc=End
   CoordSys=GLOBAL   AxisDir=Z   GridID=Z7   XRYZCoord=18   LineType=Primary   LineColor=Gray8Dark   Visible=Yes   BubbleLoc=End
   CoordSys=GLOBAL   AxisDir=Z   GridID=Z8   XRYZCoord=21   LineType=Primary   LineColor=Gray8Dark   Visible=Yes   BubbleLoc=End
   CoordSys=GLOBAL   AxisDir=Z   GridID=Z9   XRYZCoord=24   LineType=Primary   LineColor=Gray8Dark   Visible=Yes   BubbleLoc=End
   CoordSys=GLOBAL   AxisDir=Z   GridID=Z10   XRYZCoord=27   LineType=Primary   LineColor=Gray8Dark   Visible=Yes   BubbleLoc=End
   CoordSys=GLOBAL   AxisDir=Z   GridID=Z11   XRYZCoord=30   LineType=Primary   LineColor=Gray8Dark   Visible=Yes   BubbleLoc=End
 
TABLE:  "GROUPS 1 - DEFINITIONS"
   GroupName=ALL   Selection=Yes   SectionCut=Yes   Steel=Yes   Concrete=Yes   Aluminum=Yes   ColdFormed=Yes   Stage=Yes   Bridge=Yes   AutoSeismic=No   AutoWind=No   SelDesSteel=No   SelDesAlum=No   SelDesCold=No   MassWeight=Yes   Color=Red
 
TABLE:  "JOINT ADDED MASS ASSIGNMENTS"
   Joint=171   CoordSys=Global   Mass1=10   Mass2=0   Mass3=0   MMI1=0   MMI2=0   MMI3=0
   Joint=172   CoordSys=Global   Mass1=10   Mass2=0   Mass3=0   MMI1=0   MMI2=0   MMI3=0
   Joint=173   CoordSys=Global   Mass1=10   Mass2=0   Mass3=0   MMI1=0   MMI2=0   MMI3=0
   Joint=174   CoordSys=Global   Mass1=10   Mass2=0   Mass3=0   MMI1=0   MMI2=0   MMI3=0
   Joint=176   CoordSys=Global   Mass1=10   Mass2=0   Mass3=0   MMI1=0   MMI2=0   MMI3=0
   Joint=177   CoordSys=Global   Mass1=10   Mass2=0   Mass3=0   MMI1=0   MMI2=0   MMI3=0
   Joint=178   CoordSys=Global   Mass1=10   Mass2=0   Mass3=0   MMI1=0   MMI2=0   MMI3=0
   Joint=179   CoordSys=Global   Mass1=10   Mass2=0   Mass3=0   MMI1=0   MMI2=0   MMI3=0
   Joint=181   CoordSys=Global   Mass1=10   Mass2=0   Mass3=0   MMI1=0   MMI2=0   MMI3=0
   Joint=182   CoordSys=Global   Mass1=10   Mass2=0   Mass3=0   MMI1=0   MMI2=0   MMI3=0
   Joint=183   CoordSys=Global   Mass1=10   Mass2=0   Mass3=0   MMI1=0   MMI2=0   MMI3=0
   Joint=184   CoordSys=Global   Mass1=10   Mass2=0   Mass3=0   MMI1=0   MMI2=0   MMI3=0
   Joint=186   CoordSys=Global   Mass1=10   Mass2=0   Mass3=0   MMI1=0   MMI2=0   MMI3=0
   Joint=187   CoordSys=Global   Mass1=10   Mass2=0   Mass3=0   MMI1=0   MMI2=0   MMI3=0
   Joint=188   CoordSys=Global   Mass1=10   Mass2=0   Mass3=0   MMI1=0   MMI2=0   MMI3=0
   Joint=189   CoordSys=Global   Mass1=10   Mass2=0   Mass3=0   MMI1=0   MMI2=0   MMI3=0
   Joint=206   CoordSys=Global   Mass1=10   Mass2=0   Mass3=0   MMI1=0   MMI2=0   MMI3=0
   Joint=207   CoordSys=Global   Mass1=10   Mass2=0   Mass3=0   MMI1=0   MMI2=0   MMI3=0
   Joint=208   CoordSys=Global   Mass1=10   Mass2=0   Mass3=0   MMI1=0   MMI2=0   MMI3=0
   Joint=209   CoordSys=Global   Mass1=10   Mass2=0   Mass3=0   MMI1=0   MMI2=0   MMI3=0
# ... 20 like lines cut
 
TABLE:  "JOINT COORDINATES"
   Joint=170   CoordSys=GLOBAL   CoordType=Cartesian   XorR=-9   Y=0   Z=0   SpecialJt=No   GUID=73d84c06-e72a-4cb5-ae05-3b1d24e74122
   Joint=171   CoordSys=GLOBAL   CoordType=Cartesian   XorR=-9   Y=0   Z=3   SpecialJt=No   GUID=d9ce32ad-5015-4513-a3ab-27d881f39dd3
   Joint=172   CoordSys=GLOBAL   CoordType=Cartesian   XorR=-9   Y=0   Z=6   SpecialJt=No   GUID=18ad6720-5c9c-45c6-9a1d-1455fb2331b5
   Joint=173   CoordSys=GLOBAL   CoordType=Cartesian   XorR=-9   Y=0   Z=9   SpecialJt=No   GUID=8f935d1a-a83b-4175-a2e4-a88dd2ad85ba
   Joint=174   CoordSys=GLOBAL   CoordType=Cartesian   XorR=-9   Y=0   Z=12   SpecialJt=Yes   GUID=6f2aa1ab-540c-4e3b-9fdc-0311720af73c
   Joint=175   CoordSys=GLOBAL   CoordType=Cartesian   XorR=-3   Y=0   Z=0   SpecialJt=No   GUID=6e8a483c-833c-4db0-9ba1-85dc10df62f7
   Joint=176   CoordSys=GLOBAL   CoordType=Cartesian   XorR=-3   Y=0   Z=3   SpecialJt=No   GUID=75f070f4-fef6-470f-a826-190b944adaa2
   Joint=177   CoordSys=GLOBAL   CoordType=Cartesian   XorR=-3   Y=0   Z=6   SpecialJt=No   GUID=2f4c4930-830a-44c3-9146-486a45951d11
   Joint=178   CoordSys=GLOBAL   CoordType=Cartesian   XorR=-3   Y=0   Z=9   SpecialJt=No   GUID=0c1af6c3-978a-407c-8571-cca5ae0ed932
   Joint=179   CoordSys=GLOBAL   CoordType=Cartesian   XorR=-3   Y=0   Z=12   SpecialJt=Yes   GUID=8061a2b7-49d7-4c6d-9355-04342ab63ab5
   Joint=180   CoordSys=GLOBAL   CoordType=Cartesian   XorR=3   Y=0   Z=0   SpecialJt=No   GUID=42055c13-68a9-4098-ba8e-e33441972bee
   Joint=181   CoordSys=GLOBAL   CoordType=Cartesian   XorR=3   Y=0   Z=3   SpecialJt=No   GUID=063b14ad-71b5-40b2-8df2-7de2b1693968
   Joint=182   CoordSys=GLOBAL   CoordType=Cartesian   XorR=3   Y=0   Z=6   SpecialJt=No   GUID=6c2ce96f-118a-429e-82c8-8ae938173d93
   Joint=183   CoordSys=GLOBAL   CoordType=Cartesian   XorR=3   Y=0   Z=9   SpecialJt=No   GUID=867e154f-3ee8-444c-b4ff-aa5a7d564183
   Joint=184   CoordSys=GLOBAL   CoordType=Cartesian   XorR=3   Y=0   Z=12   SpecialJt=Yes   GUID=8de59db7-5361-4e88-98b2-014c61117d84
   Joint=185   CoordSys=GLOBAL   CoordType=Cartesian   XorR=9   Y=0   Z=0   SpecialJt=No   GUID=93432aa5-704c-4b93-9562-952dba9290a3
   Joint=186   CoordSys=GLOBAL   CoordType=Cartesian   XorR=9   Y=0   Z=3   SpecialJt=No   GUID=17f5931b-3dc3-49ac-b5ed-1cf212ebbe43
   Joint=187   CoordSys=GLOBAL   CoordType=Cartesian   XorR=9   Y=0   Z=6   SpecialJt=No   GUID=5676adad-1f65-42fb-af92-d59a61046eeb
   Joint=188   CoordSys=GLOBAL   CoordType=Cartesian   XorR=9   Y=0   Z=9   SpecialJt=No   GUID=c738b0cd-f9a5-46b6-9daa-6dd76817c751
   Joint=189   CoordSys=GLOBAL   CoordType=Cartesian   XorR=9   Y=0   Z=12   SpecialJt=Yes   GUID=cdf5822f-5782-47dc-9c20-e587603f7404
   Joint=190   CoordSys=GLOBAL   CoordType=Cartesian   XorR=-0.5   Y=0   Z=3   SpecialJt=No   GUID=8fb8c952-e794-49d9-97fb-dcf39deba48c
   Joint=191   CoordSys=GLOBAL   CoordType=Cartesian   XorR=-0.5   Y=0   Z=6   SpecialJt=No   GUID=b74fb0fd-9d04-4a96-8b0d-a325b94fdc0a
   Joint=192   CoordSys=GLOBAL   CoordType=Cartesian   XorR=-0.5   Y=0   Z=9   SpecialJt=No   GUID=545c5443-ea95-4d7b-964a-256af834279e
   Joint=193   CoordSys=GLOBAL   CoordType=Cartesian   XorR=-0.5   Y=0   Z=12   SpecialJt=Yes   GUID=5892f8c2-bb95-4ab2-b937-95f97ccafe81
   Joint=194   CoordSys=GLOBAL   CoordType=Cartesian   XorR=0.5   Y=0   Z=3   SpecialJt=No   GUID=ce8dafd0-72d8-49d7-aaa3-fe2eb15790bb
   Joint=195   CoordSys=GLOBAL   CoordType=Cartesian   XorR=0.5   Y=0   Z=6   SpecialJt=No   GUID=4f3e29f6-4d41-4017-b58a-8831a0c9ade9
   Joint=196   CoordSys=GLOBAL   CoordType=Cartesian   XorR=0.5   Y=0   Z=9   SpecialJt=No   GUID=7da4fe75-fbb8-4ae3-abe8-384616c1e33a
   Joint=197   CoordSys=GLOBAL   CoordType=Cartesian   XorR=0.5   Y=0   Z=12   SpecialJt=Yes   GUID=96f79740-54ca-47f1-9bc0-13197b221251
   Joint=198   CoordSys=GLOBAL   CoordType=Cartesian   XorR=-0.4   Y=0   Z=3   SpecialJt=Yes   GUID=a4ab5562-a9a3-4c6d-9d5b-4c0fbaeeb096
   Joint=199   CoordSys=GLOBAL   CoordType=Cartesian   XorR=-0.4   Y=0   Z=6   SpecialJt=Yes   GUID=98f846cb-5d04-496a-b893-ca85823cbe2f
   Joint=200   CoordSys=GLOBAL   CoordType=Cartesian   XorR=-0.4   Y=0   Z=9   SpecialJt=Yes   GUID=8807f122-2e9b-4f5b-a14c-d57259b2ad46
   Joint=201   CoordSys=GLOBAL   CoordType=Cartesian   XorR=-0.4   Y=0   Z=12   SpecialJt=Yes   GUID=dc025b6e-285f-4bbf-b8ad-0fedfc8ea57b
   Joint=202   CoordSys=GLOBAL   CoordType=Cartesian   XorR=0.4   Y=0   Z=3   SpecialJt=Yes   GUID=27e2b13e-8e87-4b9b-afc4-1b381ba16b2c
   Joint=203   CoordSys=GLOBAL   CoordType=Cartesian   XorR=0.4   Y=0   Z=6   SpecialJt=Yes   GUID=3a749638-ce07-440a-b4db-3bb4f66b39a5
   Joint=204   CoordSys=GLOBAL   CoordType=Cartesian   XorR=0.4   Y=0   Z=9   SpecialJt=Yes   GUID=8179e6f6-efd1-441f-ac4c-b161d17e16bc
   Joint=205   CoordSys=GLOBAL   CoordType=Cartesian   XorR=0.4   Y=0   Z=12   SpecialJt=Yes   GUID=a2e670cd-5c45-43dd-8513-dea22deb659c
   Joint=206   CoordSys=GLOBAL   CoordType=Cartesian   XorR=-9   Y=0   Z=15   SpecialJt=No   GUID=1ceb9489-c565-44d0-b371-f35cf5a3698a
   Joint=207   CoordSys=GLOBAL   CoordType=Cartesian   XorR=-9   Y=0   Z=18   SpecialJt=No   GUID=7048cfaa-c813-4142-8e1d-9aa0bf4317ef
   Joint=208   CoordSys=GLOBAL   CoordType=Cartesian   XorR=-9   Y=0   Z=21   SpecialJt=Yes   GUID=841b34c5-4cfc-4cc2-899f-53deadfc4a89
   Joint=209   CoordSys=GLOBAL   CoordType=Cartesian   XorR=-3   Y=0   Z=15   SpecialJt=No   GUID=38561971-1998-4b0e-b616-75acdb77a5b5
   Joint=210   CoordSys=GLOBAL   CoordType=Cartesian   XorR=-3   Y=0   Z=18   SpecialJt=No   GUID=9099a805-095c-478b-be4a-aa245128c9ab
   Joint=211   CoordSys=GLOBAL   CoordType=Cartesian   XorR=-3   Y=0   Z=21   SpecialJt=Yes   GUID=e34fd9dd-5a79-4168-805f-f8e9fc470ed0
   Joint=212   CoordSys=GLOBAL   CoordType=Cartesian   XorR=3   Y=0   Z=15   SpecialJt=No   GUID=89391fca-3403-4cd9-b27e-dd4f9bcb9abe
   Joint=213   CoordSys=GLOBAL   CoordType=Cartesian   XorR=3   Y=0   Z=18   SpecialJt=No   GUID=a45beb1f-82e8-466f-9d47-34d16e08cf22
   Joint=214   CoordSys=GLOBAL   CoordType=Cartesian   XorR=3   Y=0   Z=21   SpecialJt=Yes   GUID=a1f4a207-3f33-4639-b8fd-d313213e0f3e
   Joint=215   CoordSys=GLOBAL   CoordType=Cartesian   XorR=9   Y=0   Z=15   SpecialJt=No   GUID=921b3967-ffdb-4e1d-b035-38f67de9bab4
   Joint=216   CoordSys=GLOBAL   CoordType=Cartesian   XorR=9   Y=0   Z=18   SpecialJt=No   GUID=d295f2f2-dffb-4f6f-8630-4e68f131d954
   Joint=217   CoordSys=GLOBAL   CoordType=Cartesian   XorR=9   Y=0   Z=21   SpecialJt=Yes   GUID=b6a39dd4-d083-4561-a937-5705b05fde29
   Joint=218   CoordSys=GLOBAL   CoordType=Cartesian   XorR=-0.5   Y=0   Z=15   SpecialJt=No   GUID=723b70ab-f1fd-4be2-9f79-4a5071120df8
   Joint=219   CoordSys=GLOBAL   CoordType=Cartesian   XorR=-0.5   Y=0   Z=18   SpecialJt=No   GUID=1d8dc63c-e6ba-45bf-88a3-a51753d5a68c
   Joint=220   CoordSys=GLOBAL   CoordType=Cartesian   XorR=-0.5   Y=0   Z=21   SpecialJt=Yes   GUID=bb5abae5-6b6f-4680-9c86-b900c7cacff3
   Joint=221   CoordSys=GLOBAL   CoordType=Cartesian   XorR=0.5   Y=0   Z=15   SpecialJt=No   GUID=d19d4a67-e790-4bef-ba37-afe13de28bd0
   Joint=222   CoordSys=GLOBAL   CoordType=Cartesian   XorR=0.5   Y=0   Z=18   SpecialJt=No   GUID=d53e9257-8e6f-41c8-9210-9496f7fe845b
   Joint=223   CoordSys=GLOBAL   CoordType=Cartesian   XorR=0.5   Y=0   Z=21   SpecialJt=Yes   GUID=c8553bd0-ac9b-4650-8f6b-c24316238525
   Joint=224   CoordSys=GLOBAL   CoordType=Cartesian   XorR=-0.4   Y=0   Z=15   SpecialJt=Yes   GUID=ef6421e7-91b4-437f-9dc1-a779f9612540
   Joint=225   CoordSys=GLOBAL   CoordType=Cartesian   XorR=-0.4   Y=0   Z=18   SpecialJt=Yes   GUID=8ebfde4c-35e7-4b29-8863-1d430685e1be
   Joint=226   CoordSys=GLOBAL   CoordType=Cartesian   XorR=-0.4   Y=0   Z=21   SpecialJt=Yes   GUID=ce298fe3-0a62-419d-bf56-1f9608d8af60
   Joint=227   CoordSys=GLOBAL   CoordType=Cartesian   XorR=0.4   Y=0   Z=15   SpecialJt=Yes   GUID=05bcc7dc-e6de-4fb3-a580-ed28267ca208
   Joint=228   CoordSys=GLOBAL   CoordType=Cartesian   XorR=0.4   Y=0   Z=18   SpecialJt=Yes   GUID=4c00b227-cc71-46b2-a914-a1436930c35c
   Joint=229   CoordSys=GLOBAL   CoordType=Cartesian   XorR=0.4   Y=0   Z=21   SpecialJt=Yes   GUID=9ac6e6aa-4397-4d01-9acf-f0c833585dbb
   Joint=230   CoordSys=GLOBAL   CoordType=Cartesian   XorR=0.454876899719238   Y=0   Z=20.991494178772   SpecialJt=Yes   GUID=b2bb1143-9518-4fd8-9e9f-d4a6b160122a
   Joint=231   CoordSys=GLOBAL   CoordType=Cartesian   XorR=-9   Y=0   Z=24   SpecialJt=No   GUID=141a1276-9254-465d-981f-cc5ae9b6653a
   Joint=232   CoordSys=GLOBAL   CoordType=Cartesian   XorR=-9   Y=0   Z=27   SpecialJt=No   GUID=5d6471d5-29c8-48ab-9a1a-a516e77e5c49
   Joint=233   CoordSys=GLOBAL   CoordType=Cartesian   XorR=-9   Y=0   Z=30   SpecialJt=Yes   GUID=bc54a586-3347-4a90-a018-fde11a65932e
   Joint=234   CoordSys=GLOBAL   CoordType=Cartesian   XorR=-3   Y=0   Z=24   SpecialJt=No   GUID=9fa45115-c04e-41df-b0d0-dde0134fca1b
   Joint=235   CoordSys=GLOBAL   CoordType=Cartesian   XorR=-3   Y=0   Z=27   SpecialJt=No   GUID=734c96bc-2be6-44fc-b8c2-0f64283ab919
   Joint=236   CoordSys=GLOBAL   CoordType=Cartesian   XorR=-3   Y=0   Z=30   SpecialJt=Yes   GUID=9528546b-80d8-4859-9f8a-708c579785fb
   Joint=237   CoordSys=GLOBAL   CoordType=Cartesian   XorR=3   Y=0   Z=24   SpecialJt=No   GUID=ae68eae9-373f-4b7e-aadc-03bcc1a74818
   Joint=238   CoordSys=GLOBAL   CoordType=Cartesian   XorR=3   Y=0   Z=27   SpecialJt=No   GUID=964f01c2-78ac-48ee-875f-db68a802b478
   Joint=239   CoordSys=GLOBAL   CoordType=Cartesian   XorR=3   Y=0   Z=30   SpecialJt=Yes   GUID=7e74cd5d-f742-4484-a2b2-847eeb242d59
   Joint=240   CoordSys=GLOBAL   CoordType=Cartesian   XorR=9   Y=0   Z=24   SpecialJt=No   GUID=cfd4a2aa-1f95-4507-afa4-f2cdf032f088
   Joint=241   CoordSys=GLOBAL   CoordType=Cartesian   XorR=9   Y=0   Z=27   SpecialJt=No   GUID=d4c7ecc7-31a2-4522-bb0d-b7ff4813a768
   Joint=242   CoordSys=GLOBAL   CoordType=Cartesian   XorR=9   Y=0   Z=30   SpecialJt=Yes   GUID=ff648f80-4d16-44a9-9b69-e7e8d68c2ed6
   Joint=243   CoordSys=GLOBAL   CoordType=Cartesian   XorR=-0.5   Y=0   Z=24   SpecialJt=No   GUID=38e3d1fb-fe39-42aa-b207-1bc398869de4
   Joint=244   CoordSys=GLOBAL   CoordType=Cartesian   XorR=-0.5   Y=0   Z=27   SpecialJt=No   GUID=afaec04c-6741-4c34-9ca9-b71dcd17433a
   Joint=245   CoordSys=GLOBAL   CoordType=Cartesian   XorR=-0.5   Y=0   Z=30   SpecialJt=Yes   GUID=2853f18e-3d70-4cdd-9304-4d815cc4ae6b
   Joint=246   CoordSys=GLOBAL   CoordType=Cartesian   XorR=0.5   Y=0   Z=24   SpecialJt=No   GUID=9fe3e093-1243-42e1-835a-c606f5e72450
   Joint=247   CoordSys=GLOBAL   CoordType=Cartesian   XorR=0.5   Y=0   Z=27   SpecialJt=No   GUID=9dfba3eb-459b-461b-885d-31372bb81ad5
   Joint=248   CoordSys=GLOBAL   CoordType=Cartesian   XorR=0.5   Y=0   Z=30   SpecialJt=Yes   GUID=4ec2533d-a7a3-421f-80d0-e20cb826f0a9
   Joint=249   CoordSys=GLOBAL   CoordType=Cartesian   XorR=-0.4   Y=0   Z=24   SpecialJt=Yes   GUID=704a2abe-f2cd-4b88-bdca-c586dc64ed2c
   Joint=250   CoordSys=GLOBAL   CoordType=Cartesian   XorR=-0.4   Y=0   Z=27   SpecialJt=Yes   GUID=15100d63-c322-4bb2-864e-7d4ded131f0d
   Joint=251   CoordSys=GLOBAL   CoordType=Cartesian   XorR=-0.4   Y=0   Z=30   SpecialJt=Yes   GUID=51499466-f704-427f-8337-7b173cfb8a0a
   Joint=252   CoordSys=GLOBAL   CoordType=Cartesian   XorR=0.4   Y=0   Z=24   SpecialJt=Yes   GUID=68be407b-c688-4364-888f-35d37737062a
   Joint=253   CoordSys=GLOBAL   CoordType=Cartesian   XorR=0.4   Y=0   Z=27   SpecialJt=Yes   GUID=8bc73e33-08c3-4007-b8fe-6175c304c72e
   Joint=254   CoordSys=GLOBAL   CoordType=Cartesian   XorR=0.4   Y=0   Z=30   SpecialJt=Yes   GUID=2e3a95ca-9edd-482a-98b1-214ee71047d2
 
TABLE:  "JOINT PATTERN DEFINITIONS"
   Pattern=Default
 
TABLE:  "JOINT RESTRAINT ASSIGNMENTS"
   Joint=170   U1=Yes   U2=Yes   U3=Yes   R1=Yes   R2=Yes   R3=Yes
   Joint=175   U1=Yes   U2=Yes   U3=Yes   R1=Yes   R2=Yes   R3=Yes
   Joint=180   U1=Yes   U2=Yes   U3=Yes   R1=Yes   R2=Yes   R3=Yes
   Joint=185   U1=Yes   U2=Yes   U3=Yes   R1=Yes   R2=Yes   R3=Yes
 
TABLE:  "LINK PROPERTY ASSIGNMENTS"
   Link=1   LinkProp=LIN5   LinkFDProp=None   PropMod=1
   Link=2   LinkProp=LIN5   LinkFDProp=None   PropMod=1
   Link=3   LinkProp=LIN5   LinkFDProp=None   PropMod=1
   Link=4   LinkProp=LIN5   LinkFDProp=None   PropMod=1
   Link=5   LinkProp=LIN4   LinkFDProp=None   PropMod=1
   Link=6   LinkProp=LIN4   LinkFDProp=None   PropMod=1
   Link=7   LinkProp=LIN4   LinkFDProp=None   PropMod=1
   Link=8   LinkProp=LIN4   LinkFDProp=None   PropMod=1
   Link=9   LinkProp=LIN3   LinkFDProp=None   PropMod=1
   Link=10   LinkProp=LIN3   LinkFDProp=None   PropMod=1
   Link=11   LinkProp=LIN3   LinkFDProp=None   PropMod=1
   Link=12   LinkProp=LIN3   LinkFDProp=None   PropMod=1
   Link=13   LinkProp=LIN2   LinkFDProp=None   PropMod=1
   Link=14   LinkProp=LIN2   LinkFDProp=None   PropMod=1
   Link=15   LinkProp=LIN2   LinkFDProp=None   PropMod=1
   Link=16   LinkProp=LIN2   LinkFDProp=None   PropMod=1
   Link=17   LinkProp=N-LIN1   LinkFDProp=None   PropMod=1
   Link=18   LinkProp=N-LIN1   LinkFDProp=None   PropMod=1
   Link=19   LinkProp=N-LIN1   LinkFDProp=None   PropMod=1
   Link=20   LinkProp=N-LIN1   LinkFDProp=None   PropMod=1
 
TABLE:  "LINK PROPERTY DEFINITIONS 01 - GENERAL"
   Link=LIN2   LinkType="Plastic (Wen)"   Mass=0   Weight=0   RotInert1=0   RotInert2=0   RotInert3=0   DefLength=1   DefArea=1   PDM2I=0   PDM2J=0   PDM3I=0   PDM3J=0   StiffLOpt="Effective from Zero"   StiffDOpt=Initial   StiffDFact=1   Color=Magenta
   Link=LIN3   LinkType="Plastic (Wen)"   Mass=0   Weight=0   RotInert1=0   RotInert2=0   RotInert3=0   DefLength=1   DefArea=1   PDM2I=0   PDM2J=0   PDM3I=0   PDM3J=0   StiffLOpt="Effective from Zero"   StiffDOpt=Initial   StiffDFact=1   Color=Yellow
   Link=LIN4   LinkType="Plastic (Wen)"   Mass=0   Weight=0   RotInert1=0   RotInert2=0   RotInert3=0   DefLength=1   DefArea=1   PDM2I=0   PDM2J=0   PDM3I=0   PDM3J=0   StiffLOpt="Effective from Zero"   StiffDOpt=Initial   StiffDFact=1   Color=Gray8Dark
   Link=LIN5   LinkType="Plastic (Wen)"   Mass=0   Weight=0   RotInert1=0   RotInert2=0   RotInert3=0   DefLength=1   DefArea=1   PDM2I=0   PDM2J=0   PDM3I=0   PDM3J=0   StiffLOpt="Effective from Zero"   StiffDOpt=Initial   StiffDFact=1   Color=Blue
   Link=N-LIN1   LinkType="Plastic (Wen)"   Mass=0   Weight=0   RotInert1=0   RotInert2=0   RotInert3=0   DefLength=1   DefArea=1   PDM2I=0   PDM2J=0   PDM3I=0   PDM3J=0   StiffLOpt="Effective from Zero"   StiffDOpt=Initial   StiffDFact=1   Color=Red
 
TABLE:  "LINK PROPERTY DEFINITIONS 10 - PLASTIC (WEN)"
   Link=LIN2   DOF=U1   Fixed=Yes
   Link=LIN2   DOF=U2   Fixed=Yes
   Link=LIN2   DOF=U3   Fixed=Yes
   Link=LIN2   DOF=R1   Fixed=Yes
   Link=LIN2   DOF=R2   Fixed=Yes
   Link=LIN2   DOF=R3   Fixed=No   NonLinear=Yes   RotKE=50000   RotCE=0   RotK=50000   RotYield=141.181881018499   Ratio=0.03   YieldExp=2
   Link=LIN3   DOF=U1   Fixed=Yes
   Link=LIN3   DOF=U2   Fixed=Yes
   Link=LIN3   DOF=U3   Fixed=Yes
   Link=LIN3   DOF=R1   Fixed=Yes
   Link=LIN3   DOF=R2   Fixed=Yes
   Link=LIN3   DOF=R3   Fixed=No   NonLinear=Yes   RotKE=50000   RotCE=0   RotK=50000   RotYield=129.692207836658   Ratio=0.03   YieldExp=2
   Link=LIN4   DOF=U1   Fixed=Yes
   Link=LIN4   DOF=U2   Fixed=Yes
   Link=LIN4   DOF=U3   Fixed=Yes
   Link=LIN4   DOF=R1   Fixed=Yes
   Link=LIN4   DOF=R2   Fixed=Yes
   Link=LIN4   DOF=R3   Fixed=No   NonLinear=Yes   RotKE=50000   RotCE=0   RotK=50000   RotYield=32.5720313435712   Ratio=0.03   YieldExp=2
   Link=LIN5   DOF=U1   Fixed=Yes
   Link=LIN5   DOF=U2   Fixed=Yes
   Link=LIN5   DOF=U3   Fixed=Yes
   Link=LIN5   DOF=R1   Fixed=Yes
   Link=LIN5   DOF=R2   Fixed=Yes
   Link=LIN5   DOF=R3   Fixed=No   NonLinear=Yes   RotKE=50000   RotCE=0   RotK=50000   RotYield=105.882014898712   Ratio=0.03   YieldExp=2
   Link=N-LIN1   DOF=U1   Fixed=Yes
   Link=N-LIN1   DOF=U2   Fixed=Yes
   Link=N-LIN1   DOF=U3   Fixed=Yes
   Link=N-LIN1   DOF=R1   Fixed=Yes
   Link=N-LIN1   DOF=R2   Fixed=Yes
   Link=N-LIN1   DOF=R3   Fixed=No   NonLinear=Yes   RotKE=50000   RotCE=0   RotK=50000   RotYield=15.4585968552446   Ratio=0.03   YieldExp=2
 
TABLE:  "LOAD CASE DEFINITIONS"
   Case=DEAD   Type=LinStatic   InitialCond=Zero   DesTypeOpt="Prog Det"   DesignType=Dead   DesActOpt="Prog Det"   DesignAct=Non-Composite   AutoType=None   RunCase=Yes   GUID=57685dbd-bee3-4e7c-8e40-01aeb23c3e3c
   Case=MODAL   Type=LinModal   InitialCond=Zero   DesTypeOpt="Prog Det"   DesignType=Other   DesActOpt="Prog Det"   DesignAct=Other   AutoType=None   RunCase=Yes   GUID=77ca617d-bc40-4230-beda-4d456687589b
   Case=ACASE1   Type=NonDirHist   InitialCond=Zero   DesTypeOpt="Prog Det"   DesignType=Quake   DesActOpt="Prog Det"   DesignAct="Short-Term Composite"   AutoType=None   RunCase=Yes   GUID=ce9e9ee8-f661-49b7-8c88-f3481c03679b
 
TABLE:  "LOAD PATTERN DEFINITIONS"
   LoadPat=DEAD   DesignType=Dead   SelfWtMult=1   GUID=ef670a96-26f5-481c-b957-4330759f93e0
 
TABLE:  "MASS SOURCE"
   MassSource=MSSSRC1   Elements=Yes   Masses=Yes   Loads=No   IsDefault=Yes
 
TABLE:  "MATERIAL PROPERTIES 01 - GENERAL"
   Material=4000Psi   Type=Concrete   Grade="f'c 4000 psi"   SymType=Isotropic   TempDepend=No   Color=Magenta   GUID=5c8dddb9-d6da-48e5-8c74-1471645b0ba7   Notes="Customary f'c 4000 psi 11/11/2021 19:39:46"
   Material=A416Gr270   Type=Tendon   Grade="Grade 270"   SymType=Uniaxial   TempDepend=No   Color=Magenta   GUID=94c7a39b-e927-4966-8194-ff000a5b9dde   Notes="ASTM A416 Grade 270 11/11/2021 20:49:08"
   Material=A992Fy50   Type=Steel   Grade="Grade 50"   SymType=Isotropic   TempDepend=No   Color=Red   Notes="ASTM A992 Grade 50 11/11/2021 19:39:46"
 
TABLE:  "MATERIAL PROPERTIES 02 - BASIC MECHANICAL PROPERTIES"
   Material=4000Psi   UnitWeight=23.5631216161854   UnitMass=2.40276960558926   E1=24855578.0600518   G12=10356490.8583549   U12=0.2   A1=9.89999952793124E-06
   Material=A416Gr270   UnitWeight=76.9728639422648   UnitMass=7.84904737995992   E1=196500599.8512   A1=1.16999994421006E-05
   Material=A992Fy50   UnitWeight=76.9728639422648   UnitMass=7.84904737995992   E1=199947978.795958   G12=76903068.767676   U12=0.3   A1=1.16999994421006E-05
 
TABLE:  "MATERIAL PROPERTIES 03A - STEEL DATA"
   Material=A992Fy50   Fy=344737.894475789   Fu=448159.262818526   EffFy=379211.683923368   EffFu=492975.189100378   SSCurveOpt=Simple   SSHysType=Kinematic   SHard=0.015   SMax=0.11   SRup=0.17   FinalSlope=-0.1
 
TABLE:  "MATERIAL PROPERTIES 03B - CONCRETE DATA"
   Material=4000Psi   Fc=27579.0315580631   eFc=27579.0315580631   LtWtConc=No   SSCurveOpt=Mander   SSHysType=Takeda   SFc=0.00221914   SCap=0.005   FinalSlope=-0.1   FAngle=0   DAngle=0
 
TABLE:  "MATERIAL PROPERTIES 03F - TENDON DATA"
   Material=A416Gr270   Fy=1689905.15872032   Fu=1861584.63016926   SSCurveOpt="270 ksi"   SSHysType=Kinematic   FinalSlope=-0.1
 
TABLE:  "MATERIAL PROPERTIES 06 - DAMPING PARAMETERS"
   Material=4000Psi   ModalRatio=0   VisMass=0   VisStiff=0   HysMass=0   HysStiff=0
   Material=A416Gr270   ModalRatio=0   VisMass=0   VisStiff=0   HysMass=0   HysStiff=0
   Material=A992Fy50   ModalRatio=0   VisMass=0   VisStiff=0   HysMass=0   HysStiff=0
 
TABLE:  "OPTIONS - COLORS - DISPLAY"
   DeviceType=Screen   Points=Blue   LinesFrame=Blue   LinesFrmDL=Blue   LinesCable=Green   LinesTendon=Green   SpringLinks=Green   Restraints=Green   Releases=Green   Axes=Cyan   Text=Black   ShadowLines=Gray8Dark   GuideLines=Gray8Dark _
        Highlight=Red   Selection=10504778   AreaFillBot=Red   AreaFillTop=16744703   AreaFillSd=Red   AreaEdge=DarkRed   SolidF1=Red   SolidF2=Blue   SolidF3=Green   SolidF4=Yellow   SolidF5=White   SolidF6=Cyan   SolidEdge=DarkRed _
        Floor=Gray4   Background=White   BGLowLeft=White   BGLowRight=White   BGUpRight=White   Darkness=0.5
   DeviceType=Printer   Points=Gray8Dark   LinesFrame=Black   LinesFrmDL=Gray4   LinesCable=Black   LinesTendon=Black   SpringLinks=Gray8Dark   Restraints=Gray8Dark   Releases=Gray4   Axes=Black   Text=Black   ShadowLines=Gray4 _
        GuideLines=Gray4   Highlight=Black   Selection=Black   AreaFillBot=Gray4   AreaFillTop=Gray8Dark   AreaFillSd=Gray4   AreaEdge=Black   SolidF1=Gray1Light   SolidF2=Gray2   SolidF3=Gray3   SolidF4=Gray4   SolidF5=Gray5 _
        SolidF6=Gray6   SolidEdge=Black   Floor=Gray4   Background=White   BGLowLeft=White   BGLowRight=White   BGUpRight=White   Darkness=0.5
   DeviceType="Color Printer"   Points=Blue   LinesFrame=Blue   LinesFrmDL=Blue   LinesCable=Green   LinesTendon=Green   SpringLinks=Green   Restraints=Green   Releases=Green   Axes=Cyan   Text=Black   ShadowLines=Gray8Dark _
        GuideLines=Gray8Dark   Highlight=Red   Selection=10504778   AreaFillBot=Red   AreaFillTop=16744703   AreaFillSd=Red   AreaEdge=DarkRed   SolidF1=Red   SolidF2=Blue   SolidF3=Green   SolidF4=Yellow   SolidF5=White   SolidF6=Cyan _
        SolidEdge=DarkRed   Floor=Gray4   Background=White   BGLowLeft=White   BGLowRight=White   BGUpRight=White   Darkness=0.5
 
TABLE:  "OPTIONS - COLORS - OUTPUT"
   DeviceType=Screen   Contour1=13107400   Contour2=6553828   Contour3=Red   Contour4=16639   Contour5=Orange   Contour6=43775   Contour7=54527   Contour8=Yellow   Contour9=65408   Contour10=Green   Contour11=8453888   Contour12=Cyan _
        Contour13=16755200   Contour14=16733440   Contour15=Blue   Transpare=0.5   Ratio1=Cyan   Ratio2=Green   Ratio3=Yellow   Ratio4=Orange   Ratio5=Red   RatioNotD=Gray4   RatioNotC=Red   RatioVal1=0.5   RatioVal2=0.7   RatioVal3=0.9 _
        RatioVal4=1   DFillPos=Blue   DFillNeg=Red   DFillRPos=Green   DFillRNeg=Green
   DeviceType=Printer   Contour1=Black   Contour2=3158064   Contour3=4210752   Contour4=5263440   Contour5=6316128   Contour6=7368816   Contour7=Gray8Dark   Contour8=Gray7   Contour9=Gray6   Contour10=Gray5   Contour11=Gray4 _
        Contour12=Gray3   Contour13=Gray2   Contour14=Gray1Light   Contour15=White   Transpare=0   Ratio1=Gray2   Ratio2=Gray4   Ratio3=Gray8Dark   Ratio4=4210752   Ratio5=Black   RatioNotD=Gray4   RatioNotC=Black   RatioVal1=0.5 _
        RatioVal2=0.7   RatioVal3=0.9   RatioVal4=1   DFillPos=Gray8Dark   DFillNeg=Gray8Dark   DFillRPos=4210752   DFillRNeg=4210752
   DeviceType="Color Printer"   Contour1=13107400   Contour2=6553828   Contour3=Red   Contour4=16639   Contour5=Orange   Contour6=43775   Contour7=54527   Contour8=Yellow   Contour9=65408   Contour10=Green   Contour11=8453888 _
        Contour12=Cyan   Contour13=16755200   Contour14=16733440   Contour15=Blue   Transpare=0   Ratio1=Cyan   Ratio2=Green   Ratio3=Yellow   Ratio4=Orange   Ratio5=Red   RatioNotD=Gray4   RatioNotC=Red   RatioVal1=0.5   RatioVal2=0.7 _
        RatioVal3=0.9   RatioVal4=1   DFillPos=Blue   DFillNeg=Red   DFillRPos=Green   DFillRNeg=Green
 
TABLE:  "OVERWRITES - STEEL DESIGN - AISC 360-16"
   Frame=271   DesignSect="Program Determined"   FrameType="Program Determined"   Fy=0   RLLF=0   AreaRatio=0   XLMajor=0   XLMinor=0   XLLTB=0   K1Major=0   K1Minor=0   K2Major=0   K2Minor=0   KLTB=0   CmMajor=0   CmMinor=0   Cb=0 _
        B1Major=0   B1Minor=0   B2Major=0   B2Minor=0   HSSReduceT="Program Determined"   HSSWelding="Program Determined"   Omega0=0   Ry=0   Pnc=0   Pnt=0   Mn3=0   Mn2=0   Vn2=0   Vn3=0   CheckDefl="Program Determined" _
        DeflType="Program Determined"   DLRat=0   SDLAndLLRat=0   LLRat=0   TotalRat=0   NetRat=0   DLAbs=0   SDLAndLLAbs=0   LLAbs=0   TotalAbs=0   NetAbs=0   SpecCamber=0   DCLimit=0
   Frame=272   DesignSect="Program Determined"   FrameType="Program Determined"   Fy=0   RLLF=0   AreaRatio=0   XLMajor=0   XLMinor=0   XLLTB=0   K1Major=0   K1Minor=0   K2Major=0   K2Minor=0   KLTB=0   CmMajor=0   CmMinor=0   Cb=0 _
        B1Major=0   B1Minor=0   B2Major=0   B2Minor=0   HSSReduceT="Program Determined"   HSSWelding="Program Determined"   Omega0=0   Ry=0   Pnc=0   Pnt=0   Mn3=0   Mn2=0   Vn2=0   Vn3=0   CheckDefl="Program Determined" _
        DeflType="Program Determined"   DLRat=0   SDLAndLLRat=0   LLRat=0   TotalRat=0   NetRat=0   DLAbs=0   SDLAndLLAbs=0   LLAbs=0   TotalAbs=0   NetAbs=0   SpecCamber=0   DCLimit=0
   Frame=273   DesignSect="Program Determined"   FrameType="Program Determined"   Fy=0   RLLF=0   AreaRatio=0   XLMajor=0   XLMinor=0   XLLTB=0   K1Major=0   K1Minor=0   K2Major=0   K2Minor=0   KLTB=0   CmMajor=0   CmMinor=0   Cb=0 _
        B1Major=0   B1Minor=0   B2Major=0   B2Minor=0   HSSReduceT="Program Determined"   HSSWelding="Program Determined"   Omega0=0   Ry=0   Pnc=0   Pnt=0   Mn3=0   Mn2=0   Vn2=0   Vn3=0   CheckDefl="Program Determined" _
        DeflType="Program Determined"   DLRat=0   SDLAndLLRat=0   LLRat=0   TotalRat=0   NetRat=0   DLAbs=0   SDLAndLLAbs=0   LLAbs=0   TotalAbs=0   NetAbs=0   SpecCamber=0   DCLimit=0
   Frame=274   DesignSect="Program Determined"   FrameType="Program Determined"   Fy=0   RLLF=0   AreaRatio=0   XLMajor=0   XLMinor=0   XLLTB=0   K1Major=0   K1Minor=0   K2Major=0   K2Minor=0   KLTB=0   CmMajor=0   CmMinor=0   Cb=0 _
        B1Major=0   B1Minor=0   B2Major=0   B2Minor=0   HSSReduceT="Program Determined"   HSSWelding="Program Determined"   Omega0=0   Ry=0   Pnc=0   Pnt=0   Mn3=0   Mn2=0   Vn2=0   Vn3=0   CheckDefl="Program Determined" _
        DeflType="Program Determined"   DLRat=0   SDLAndLLRat=0   LLRat=0   TotalRat=0   NetRat=0   DLAbs=0   SDLAndLLAbs=0   LLAbs=0   TotalAbs=0   NetAbs=0   SpecCamber=0   DCLimit=0
   Frame=275   DesignSect="Program Determined"   FrameType="Program Determined"   Fy=0   RLLF=0   AreaRatio=0   XLMajor=0   XLMinor=0   XLLTB=0   K1Major=0   K1Minor=0   K2Major=0   K2Minor=0   KLTB=0   CmMajor=0   CmMinor=0   Cb=0 _
        B1Major=0   B1Minor=0   B2Major=0   B2Minor=0   HSSReduceT="Program Determined"   HSSWelding="Program Determined"   Omega0=0   Ry=0   Pnc=0   Pnt=0   Mn3=0   Mn2=0   Vn2=0   Vn3=0   CheckDefl="Program Determined" _
        DeflType="Program Determined"   DLRat=0   SDLAndLLRat=0   LLRat=0   TotalRat=0   NetRat=0   DLAbs=0   SDLAndLLAbs=0   LLAbs=0   TotalAbs=0   NetAbs=0   SpecCamber=0   DCLimit=0
   Frame=276   DesignSect="Program Determined"   FrameType="Program Determined"   Fy=0   RLLF=0   AreaRatio=0   XLMajor=0   XLMinor=0   XLLTB=0   K1Major=0   K1Minor=0   K2Major=0   K2Minor=0   KLTB=0   CmMajor=0   CmMinor=0   Cb=0 _
        B1Major=0   B1Minor=0   B2Major=0   B2Minor=0   HSSReduceT="Program Determined"   HSSWelding="Program Determined"   Omega0=0   Ry=0   Pnc=0   Pnt=0   Mn3=0   Mn2=0   Vn2=0   Vn3=0   CheckDefl="Program Determined" _
        DeflType="Program Determined"   DLRat=0   SDLAndLLRat=0   LLRat=0   TotalRat=0   NetRat=0   DLAbs=0   SDLAndLLAbs=0   LLAbs=0   TotalAbs=0   NetAbs=0   SpecCamber=0   DCLimit=0
   Frame=277   DesignSect="Program Determined"   FrameType="Program Determined"   Fy=0   RLLF=0   AreaRatio=0   XLMajor=0   XLMinor=0   XLLTB=0   K1Major=0   K1Minor=0   K2Major=0   K2Minor=0   KLTB=0   CmMajor=0   CmMinor=0   Cb=0 _
        B1Major=0   B1Minor=0   B2Major=0   B2Minor=0   HSSReduceT="Program Determined"   HSSWelding="Program Determined"   Omega0=0   Ry=0   Pnc=0   Pnt=0   Mn3=0   Mn2=0   Vn2=0   Vn3=0   CheckDefl="Program Determined" _
        DeflType="Program Determined"   DLRat=0   SDLAndLLRat=0   LLRat=0   TotalRat=0   NetRat=0   DLAbs=0   SDLAndLLAbs=0   LLAbs=0   TotalAbs=0   NetAbs=0   SpecCamber=0   DCLimit=0
   Frame=278   DesignSect="Program Determined"   FrameType="Program Determined"   Fy=0   RLLF=0   AreaRatio=0   XLMajor=0   XLMinor=0   XLLTB=0   K1Major=0   K1Minor=0   K2Major=0   K2Minor=0   KLTB=0   CmMajor=0   CmMinor=0   Cb=0 _
        B1Major=0   B1Minor=0   B2Major=0   B2Minor=0   HSSReduceT="Program Determined"   HSSWelding="Program Determined"   Omega0=0   Ry=0   Pnc=0   Pnt=0   Mn3=0   Mn2=0   Vn2=0   Vn3=0   CheckDefl="Program Determined" _
        DeflType="Program Determined"   DLRat=0   SDLAndLLRat=0   LLRat=0   TotalRat=0   NetRat=0   DLAbs=0   SDLAndLLAbs=0   LLAbs=0   TotalAbs=0   NetAbs=0   SpecCamber=0   DCLimit=0
   Frame=279   DesignSect="Program Determined"   FrameType="Program Determined"   Fy=0   RLLF=0   AreaRatio=0   XLMajor=0   XLMinor=0   XLLTB=0   K1Major=0   K1Minor=0   K2Major=0   K2Minor=0   KLTB=0   CmMajor=0   CmMinor=0   Cb=0 _
        B1Major=0   B1Minor=0   B2Major=0   B2Minor=0   HSSReduceT="Program Determined"   HSSWelding="Program Determined"   Omega0=0   Ry=0   Pnc=0   Pnt=0   Mn3=0   Mn2=0   Vn2=0   Vn3=0   CheckDefl="Program Determined" _
        DeflType="Program Determined"   DLRat=0   SDLAndLLRat=0   LLRat=0   TotalRat=0   NetRat=0   DLAbs=0   SDLAndLLAbs=0   LLAbs=0   TotalAbs=0   NetAbs=0   SpecCamber=0   DCLimit=0
   Frame=280   DesignSect="Program Determined"   FrameType="Program Determined"   Fy=0   RLLF=0   AreaRatio=0   XLMajor=0   XLMinor=0   XLLTB=0   K1Major=0   K1Minor=0   K2Major=0   K2Minor=0   KLTB=0   CmMajor=0   CmMinor=0   Cb=0 _
        B1Major=0   B1Minor=0   B2Major=0   B2Minor=0   HSSReduceT="Program Determined"   HSSWelding="Program Determined"   Omega0=0   Ry=0   Pnc=0   Pnt=0   Mn3=0   Mn2=0   Vn2=0   Vn3=0   CheckDefl="Program Determined" _
        DeflType="Program Determined"   DLRat=0   SDLAndLLRat=0   LLRat=0   TotalRat=0   NetRat=0   DLAbs=0   SDLAndLLAbs=0   LLAbs=0   TotalAbs=0   NetAbs=0   SpecCamber=0   DCLimit=0
   Frame=281   DesignSect="Program Determined"   FrameType="Program Determined"   Fy=0   RLLF=0   AreaRatio=0   XLMajor=0   XLMinor=0   XLLTB=0   K1Major=0   K1Minor=0   K2Major=0   K2Minor=0   KLTB=0   CmMajor=0   CmMinor=0   Cb=0 _
        B1Major=0   B1Minor=0   B2Major=0   B2Minor=0   HSSReduceT="Program Determined"   HSSWelding="Program Determined"   Omega0=0   Ry=0   Pnc=0   Pnt=0   Mn3=0   Mn2=0   Vn2=0   Vn3=0   CheckDefl="Program Determined" _
        DeflType="Program Determined"   DLRat=0   SDLAndLLRat=0   LLRat=0   TotalRat=0   NetRat=0   DLAbs=0   SDLAndLLAbs=0   LLAbs=0   TotalAbs=0   NetAbs=0   SpecCamber=0   DCLimit=0
   Frame=282   DesignSect="Program Determined"   FrameType="Program Determined"   Fy=0   RLLF=0   AreaRatio=0   XLMajor=0   XLMinor=0   XLLTB=0   K1Major=0   K1Minor=0   K2Major=0   K2Minor=0   KLTB=0   CmMajor=0   CmMinor=0   Cb=0 _
        B1Major=0   B1Minor=0   B2Major=0   B2Minor=0   HSSReduceT="Program Determined"   HSSWelding="Program Determined"   Omega0=0   Ry=0   Pnc=0   Pnt=0   Mn3=0   Mn2=0   Vn2=0   Vn3=0   CheckDefl="Program Determined" _
        DeflType="Program Determined"   DLRat=0   SDLAndLLRat=0   LLRat=0   TotalRat=0   NetRat=0   DLAbs=0   SDLAndLLAbs=0   LLAbs=0   TotalAbs=0   NetAbs=0   SpecCamber=0   DCLimit=0
   Frame=283   DesignSect="Program Determined"   FrameType="Program Determined"   Fy=0   RLLF=0   AreaRatio=0   XLMajor=0   XLMinor=0   XLLTB=0   K1Major=0   K1Minor=0   K2Major=0   K2Minor=0   KLTB=0   CmMajor=0   CmMinor=0   Cb=0 _
        B1Major=0   B1Minor=0   B2Major=0   B2Minor=0   HSSReduceT="Program Determined"   HSSWelding="Program Determined"   Omega0=0   Ry=0   Pnc=0   Pnt=0   Mn3=0   Mn2=0   Vn2=0   Vn3=0   CheckDefl="Program Determined" _
        DeflType="Program Determined"   DLRat=0   SDLAndLLRat=0   LLRat=0   TotalRat=0   NetRat=0   DLAbs=0   SDLAndLLAbs=0   LLAbs=0   TotalAbs=0   NetAbs=0   SpecCamber=0   DCLimit=0
   Frame=284   DesignSect="Program Determined"   FrameType="Program Determined"   Fy=0   RLLF=0   AreaRatio=0   XLMajor=0   XLMinor=0   XLLTB=0   K1Major=0   K1Minor=0   K2Major=0   K2Minor=0   KLTB=0   CmMajor=0   CmMinor=0   Cb=0 _
        B1Major=0   B1Minor=0   B2Major=0   B2Minor=0   HSSReduceT="Program Determined"   HSSWelding="Program Determined"   Omega0=0   Ry=0   Pnc=0   Pnt=0   Mn3=0   Mn2=0   Vn2=0   Vn3=0   CheckDefl="Program Determined" _
        DeflType="Program Determined"   DLRat=0   SDLAndLLRat=0   LLRat=0   TotalRat=0   NetRat=0   DLAbs=0   SDLAndLLAbs=0   LLAbs=0   TotalAbs=0   NetAbs=0   SpecCamber=0   DCLimit=0
   Frame=285   DesignSect="Program Determined"   FrameType="Program Determined"   Fy=0   RLLF=0   AreaRatio=0   XLMajor=0   XLMinor=0   XLLTB=0   K1Major=0   K1Minor=0   K2Major=0   K2Minor=0   KLTB=0   CmMajor=0   CmMinor=0   Cb=0 _
        B1Major=0   B1Minor=0   B2Major=0   B2Minor=0   HSSReduceT="Program Determined"   HSSWelding="Program Determined"   Omega0=0   Ry=0   Pnc=0   Pnt=0   Mn3=0   Mn2=0   Vn2=0   Vn3=0   CheckDefl="Program Determined" _
        DeflType="Program Determined"   DLRat=0   SDLAndLLRat=0   LLRat=0   TotalRat=0   NetRat=0   DLAbs=0   SDLAndLLAbs=0   LLAbs=0   TotalAbs=0   NetAbs=0   SpecCamber=0   DCLimit=0
   Frame=286   DesignSect="Program Determined"   FrameType="Program Determined"   Fy=0   RLLF=0   AreaRatio=0   XLMajor=0   XLMinor=0   XLLTB=0   K1Major=0   K1Minor=0   K2Major=0   K2Minor=0   KLTB=0   CmMajor=0   CmMinor=0   Cb=0 _
        B1Major=0   B1Minor=0   B2Major=0   B2Minor=0   HSSReduceT="Program Determined"   HSSWelding="Program Determined"   Omega0=0   Ry=0   Pnc=0   Pnt=0   Mn3=0   Mn2=0   Vn2=0   Vn3=0   CheckDefl="Program Determined" _
        DeflType="Program Determined"   DLRat=0   SDLAndLLRat=0   LLRat=0   TotalRat=0   NetRat=0   DLAbs=0   SDLAndLLAbs=0   LLAbs=0   TotalAbs=0   NetAbs=0   SpecCamber=0   DCLimit=0
   Frame=287   DesignSect="Program Determined"   FrameType="Program Determined"   Fy=0   RLLF=0   AreaRatio=0   XLMajor=0   XLMinor=0   XLLTB=0   K1Major=0   K1Minor=0   K2Major=0   K2Minor=0   KLTB=0   CmMajor=0   CmMinor=0   Cb=0 _
        B1Major=0   B1Minor=0   B2Major=0   B2Minor=0   HSSReduceT="Program Determined"   HSSWelding="Program Determined"   Omega0=0   Ry=0   Pnc=0   Pnt=0   Mn3=0   Mn2=0   Vn2=0   Vn3=0   CheckDefl="Program Determined" _
        DeflType="Program Determined"   DLRat=0   SDLAndLLRat=0   LLRat=0   TotalRat=0   NetRat=0   DLAbs=0   SDLAndLLAbs=0   LLAbs=0   TotalAbs=0   NetAbs=0   SpecCamber=0   DCLimit=0
   Frame=288   DesignSect="Program Determined"   FrameType="Program Determined"   Fy=0   RLLF=0   AreaRatio=0   XLMajor=0   XLMinor=0   XLLTB=0   K1Major=0   K1Minor=0   K2Major=0   K2Minor=0   KLTB=0   CmMajor=0   CmMinor=0   Cb=0 _
        B1Major=0   B1Minor=0   B2Major=0   B2Minor=0   HSSReduceT="Program Determined"   HSSWelding="Program Determined"   Omega0=0   Ry=0   Pnc=0   Pnt=0   Mn3=0   Mn2=0   Vn2=0   Vn3=0   CheckDefl="Program Determined" _
        DeflType="Program Determined"   DLRat=0   SDLAndLLRat=0   LLRat=0   TotalRat=0   NetRat=0   DLAbs=0   SDLAndLLAbs=0   LLAbs=0   TotalAbs=0   NetAbs=0   SpecCamber=0   DCLimit=0
   Frame=289   DesignSect="Program Determined"   FrameType="Program Determined"   Fy=0   RLLF=0   AreaRatio=0   XLMajor=0   XLMinor=0   XLLTB=0   K1Major=0   K1Minor=0   K2Major=0   K2Minor=0   KLTB=0   CmMajor=0   CmMinor=0   Cb=0 _
        B1Major=0   B1Minor=0   B2Major=0   B2Minor=0   HSSReduceT="Program Determined"   HSSWelding="Program Determined"   Omega0=0   Ry=0   Pnc=0   Pnt=0   Mn3=0   Mn2=0   Vn2=0   Vn3=0   CheckDefl="Program Determined" _
        DeflType="Program Determined"   DLRat=0   SDLAndLLRat=0   LLRat=0   TotalRat=0   NetRat=0   DLAbs=0   SDLAndLLAbs=0   LLAbs=0   TotalAbs=0   NetAbs=0   SpecCamber=0   DCLimit=0
   Frame=290   DesignSect="Program Determined"   FrameType="Program Determined"   Fy=0   RLLF=0   AreaRatio=0   XLMajor=0   XLMinor=0   XLLTB=0   K1Major=0   K1Minor=0   K2Major=0   K2Minor=0   KLTB=0   CmMajor=0   CmMinor=0   Cb=0 _
        B1Major=0   B1Minor=0   B2Major=0   B2Minor=0   HSSReduceT="Program Determined"   HSSWelding="Program Determined"   Omega0=0   Ry=0   Pnc=0   Pnt=0   Mn3=0   Mn2=0   Vn2=0   Vn3=0   CheckDefl="Program Determined" _
        DeflType="Program Determined"   DLRat=0   SDLAndLLRat=0   LLRat=0   TotalRat=0   NetRat=0   DLAbs=0   SDLAndLLAbs=0   LLAbs=0   TotalAbs=0   NetAbs=0   SpecCamber=0   DCLimit=0
# ... 270 like lines cut
 
TABLE:  "PREFERENCES - ALUMINUM DESIGN - AA-ASD 2000"
   THDesign=Envelopes   FrameType="Moment Frame"   SRatioLimit=1   MaxIter=1   LatFact=1.33333333333333   UseLatFact=No   Bridge=No
 
TABLE:  "PREFERENCES - COLD FORMED DESIGN - AISI-ASD96"
   THDesign=Envelopes   FrameType="Braced Frame"   SRatioLimit=1   MaxIter=1   OmegaBS=1.67   OmegaBUS=1.67   OmegaBLTB=1.67   OmegaVS=1.67   OmegaVNS=1.5   OmegaT=1.67   OmegaC=1.8
 
TABLE:  "PREFERENCES - CONCRETE DESIGN - ACI 318-14"
   THDesign=Envelopes   NumCurves=24   NumPoints=11   MinEccen=Yes   PatLLF=0.75   UFLimit=0.95   SeisCat=D   Rho=1   Sds=0.5   PhiT=0.9   PhiCTied=0.65   PhiCSpiral=0.75   PhiV=0.75   PhiVSeismic=0.6   PhiVJoint=0.85
 
TABLE:  "PREFERENCES - DIMENSIONAL"
   MergeTol=0.001   FineGrid=0.25   Nudge=0.25   SelectTol=3   SnapTol=12   SLineThick=2   PLineThick=4   MaxFont=8   MinFont=3   AutoZoom=10   ShrinkFact=70   TextFileLen=240
 
TABLE:  "PREFERENCES - STEEL DESIGN - AISC 360-16"
   THDesign=Envelopes   FrameType=SMF   PatLLF=0.75   SRatioLimit=0.95   MaxIter=1   SDC=D   SeisCode=Yes   SeisLoad=Yes   ImpFactor=1   SystemRho=1   SystemSds=0.5   SystemR=8   SystemCd=5.5   Omega0=3   Provision=LRFD _
        AMethod="Direct Analysis"   SOMethod="General 2nd Order"   SRMethod="Tau-b Fixed"   NLCoeff=0.002   PhiB=0.9   PhiC=0.9   PhiTY=0.9   PhiTF=0.75   PhiV=0.9   PhiVRolledI=1   PhiVT=0.9   PlugWeld=Yes   HSSWelding=ERW   HSSReduceT=No _
        CheckDefl=No   DLRat=120   SDLAndLLRat=120   LLRat=360   TotalRat=240   NetRat=240
 
TABLE:  "PROGRAM CONTROL"
   ProgramName=SAP2000   Version=22.0.0   CurrUnits="KN, m, C"   SteelCode="AISC 360-16"   ConcCode="ACI 318-14"   AlumCode="AA-ASD 2000"   ColdCode=AISI-ASD96   RegenHinge=Yes
 
TABLE:  "PROJECT INFORMATION"
   Item="Company Name"   Data="Computers and Structures, Inc."
   Item="Client Name"
   Item="Project Name"
   Item="Project Number"
   Item="Model Name"
   Item="Model Description"
   Item="Revision Number"
   Item="Frame Type"
   Item=Engineer
   Item=Checker
   Item=Supervisor
   Item="Issue Code"
   Item="Design Code"
 
TABLE:  "REBAR SIZES"
   RebarID=#2   Area=3.2258E-05   Diameter=0.00635
   RebarID=#3   Area=7.09675996154547E-05   Diameter=0.009525
   RebarID=#4   Area=0.000129032001922727   Diameter=0.0127
   RebarID=#5   Area=0.000199999601538181   Diameter=0.015875
   RebarID=#6   Area=0.000283870398461819   Diameter=0.01905
   RebarID=#7   Area=0.000387096015381813   Diameter=0.022225
   RebarID=#8   Area=0.000509676413843632   Diameter=0.0254
   RebarID=#9   Area=0.00064516   Diameter=0.0286512005329132
   RebarID=#10   Area=0.00081935318769455   Diameter=0.0322579995155334
   RebarID=#11   Area=0.00100644956308365   Diameter=0.0358139991521835
   RebarID=#14   Area=0.00145161   Diameter=0.0430021989583969
   RebarID=#18   Area=0.00258064   Diameter=0.0573277992248535
   RebarID=10M   Area=0.000100000002655387   Diameter=0.011300000667572
   RebarID=15M   Area=0.000200000005310774   Diameter=0.0159999999403954
   RebarID=20M   Area=0.000300000017579794   Diameter=0.0194999997854233
   RebarID=25M   Area=0.000500000022890568   Diameter=0.0252000016093254
   RebarID=30M   Area=0.000700000008974075   Diameter=0.0299000008821487
   RebarID=35M   Area=0.00100000004578114   Diameter=0.0357000011444092
   RebarID=45M   Area=0.00150000010712624   Diameter=0.0437000003576279
   RebarID=55M   Area=0.00250000007599831   Diameter=0.0564000033855438
   RebarID=6d   Area=2.83000004149973E-05   Diameter=0.006000000166893
   RebarID=8d   Area=5.02999995571375E-05   Diameter=0.00799999997019768
   RebarID=10d   Area=7.85000013634562E-05   Diameter=0.00999999977350235
   RebarID=12d   Area=0.000113000009249449   Diameter=0.012000000333786
   RebarID=14d   Area=0.000154000010818839   Diameter=0.0140000008940697
   RebarID=16d   Area=0.000201000015431643   Diameter=0.0159999999403954
   RebarID=20d   Area=0.000314000005453825   Diameter=0.0199999995470047
   RebarID=25d   Area=0.000491000008711815   Diameter=0.0250000001907349
   RebarID=26d   Area=0.000531000029001236   Diameter=0.0259999997138977
   RebarID=28d   Area=0.000616000043275356   Diameter=0.0280000017881393
   RebarID=N12   Area=0.000113000009249449   Diameter=0.012000000333786
   RebarID=N16   Area=0.000201000015431643   Diameter=0.0159999999403954
   RebarID=N20   Area=0.000314000005453825   Diameter=0.0199999995470047
   RebarID=N24   Area=0.000452000036997795   Diameter=0.024000000667572
   RebarID=N28   Area=0.000616000043275356   Diameter=0.0280000017881393
   RebarID=N32   Area=0.00080400006172657   Diameter=0.0319999998807907
   RebarID=N36   Area=0.00102000001747131   Diameter=0.036000001001358
 
TABLE:  "SOLID PROPERTY DEFINITIONS"
   SolidProp=Solid1   Material=4000Psi   MatAngleA=0   MatAngleB=0   MatAngleC=0   InComp=Yes   Color=Yellow
 
END TABLE DATA
